<routes>
<trip id='trip_-h11_-h13' depart='0' from='-h11' to='-h13' />
<trip id='trip_-h11_-h23' depart='0' from='-h11' to='-h23' />
<trip id='trip_-h11_-v13' depart='0' from='-h11' to='-v13' />
<trip id='trip_-h11_-v23' depart='0' from='-h11' to='-v23' />
<trip id='trip_-h11_h21' depart='0' from='-h11' to='h21' />
<trip id='trip_-h11_v11' depart='0' from='-h11' to='v11' />
<trip id='trip_-h11_v21' depart='0' from='-h11' to='v21' />
<trip id='trip_-h21_-h13' depart='0' from='-h21' to='-h13' />
<trip id='trip_-h21_-h23' depart='0' from='-h21' to='-h23' />
<trip id='trip_-h21_-v13' depart='0' from='-h21' to='-v13' />
<trip id='trip_-h21_-v23' depart='0' from='-h21' to='-v23' />
<trip id='trip_-h21_h11' depart='0' from='-h21' to='h11' />
<trip id='trip_-h21_v11' depart='0' from='-h21' to='v11' />
<trip id='trip_-h21_v21' depart='0' from='-h21' to='v21' />
<trip id='trip_-v11_-h13' depart='0' from='-v11' to='-h13' />
<trip id='trip_-v11_-h23' depart='0' from='-v11' to='-h23' />
<trip id='trip_-v11_-v13' depart='0' from='-v11' to='-v13' />
<trip id='trip_-v11_-v23' depart='0' from='-v11' to='-v23' />
<trip id='trip_-v11_h11' depart='0' from='-v11' to='h11' />
<trip id='trip_-v11_h21' depart='0' from='-v11' to='h21' />
<trip id='trip_-v11_v21' depart='0' from='-v11' to='v21' />
<trip id='trip_-v21_-h13' depart='0' from='-v21' to='-h13' />
<trip id='trip_-v21_-h23' depart='0' from='-v21' to='-h23' />
<trip id='trip_-v21_-v13' depart='0' from='-v21' to='-v13' />
<trip id='trip_-v21_-v23' depart='0' from='-v21' to='-v23' />
<trip id='trip_-v21_h11' depart='0' from='-v21' to='h11' />
<trip id='trip_-v21_h21' depart='0' from='-v21' to='h21' />
<trip id='trip_-v21_v11' depart='0' from='-v21' to='v11' />
<trip id='trip_h13_-h23' depart='0' from='h13' to='-h23' />
<trip id='trip_h13_-v13' depart='0' from='h13' to='-v13' />
<trip id='trip_h13_-v23' depart='0' from='h13' to='-v23' />
<trip id='trip_h13_h11' depart='0' from='h13' to='h11' />
<trip id='trip_h13_h21' depart='0' from='h13' to='h21' />
<trip id='trip_h13_v11' depart='0' from='h13' to='v11' />
<trip id='trip_h13_v21' depart='0' from='h13' to='v21' />
<trip id='trip_h23_-h13' depart='0' from='h23' to='-h13' />
<trip id='trip_h23_-v13' depart='0' from='h23' to='-v13' />
<trip id='trip_h23_-v23' depart='0' from='h23' to='-v23' />
<trip id='trip_h23_h11' depart='0' from='h23' to='h11' />
<trip id='trip_h23_h21' depart='0' from='h23' to='h21' />
<trip id='trip_h23_v11' depart='0' from='h23' to='v11' />
<trip id='trip_h23_v21' depart='0' from='h23' to='v21' />
<trip id='trip_v13_-h13' depart='0' from='v13' to='-h13' />
<trip id='trip_v13_-h23' depart='0' from='v13' to='-h23' />
<trip id='trip_v13_-v23' depart='0' from='v13' to='-v23' />
<trip id='trip_v13_h11' depart='0' from='v13' to='h11' />
<trip id='trip_v13_h21' depart='0' from='v13' to='h21' />
<trip id='trip_v13_v11' depart='0' from='v13' to='v11' />
<trip id='trip_v13_v21' depart='0' from='v13' to='v21' />
<trip id='trip_v23_-h13' depart='0' from='v23' to='-h13' />
<trip id='trip_v23_-h23' depart='0' from='v23' to='-h23' />
<trip id='trip_v23_-v13' depart='0' from='v23' to='-v13' />
<trip id='trip_v23_h11' depart='0' from='v23' to='h11' />
<trip id='trip_v23_h21' depart='0' from='v23' to='h21' />
<trip id='trip_v23_v11' depart='0' from='v23' to='v11' />
<trip id='trip_v23_v21' depart='0' from='v23' to='v21' />
<flow id='flow_-h11_-h13_0' begin='0' end='1000' number='2' from='-h11' to='-h13' departSpeed='max' departPos='base' departLane='best'/> 
<flow id='flow_-h11_-h23_0' begin='0' end='1000' number='4' from='-h11' to='-h23' departSpeed='max' departPos='base' departLane='best'/> 
<flow id='flow_-h11_-v13_0' begin='0' end='1000' number='4' from='-h11' to='-v13' departSpeed='max' departPos='base' departLane='best'/> 
<flow id='flow_-h11_-v23_0' begin='0' end='1000' number='1' from='-h11' to='-v23' departSpeed='max' departPos='base' departLane='best'/> 
<flow id='flow_-h11_h21_0' begin='0' end='1000' number='6' from='-h11' to='h21' departSpeed='max' departPos='base' departLane='best'/> 
<flow id='flow_-h11_v11_0' begin='0' end='1000' number='4' from='-h11' to='v11' departSpeed='max' departPos='base' departLane='best'/> 
<flow id='flow_-h11_v21_0' begin='0' end='1000' number='4' from='-h11' to='v21' departSpeed='max' departPos='base' departLane='best'/> 
<flow id='flow_-h21_-h13_0' begin='0' end='1000' number='4' from='-h21' to='-h13' departSpeed='max' departPos='base' departLane='best'/> 
<flow id='flow_-h21_-h23_0' begin='0' end='1000' number='1' from='-h21' to='-h23' departSpeed='max' departPos='base' departLane='best'/> 
<flow id='flow_-h21_-v13_0' begin='0' end='1000' number='5' from='-h21' to='-v13' departSpeed='max' departPos='base' departLane='best'/> 
<flow id='flow_-h21_-v23_0' begin='0' end='1000' number='5' from='-h21' to='-v23' departSpeed='max' departPos='base' departLane='best'/> 
<flow id='flow_-h21_h11_0' begin='0' end='1000' number='4' from='-h21' to='h11' departSpeed='max' departPos='base' departLane='best'/> 
<flow id='flow_-h21_v11_0' begin='0' end='1000' number='7' from='-h21' to='v11' departSpeed='max' departPos='base' departLane='best'/> 
<flow id='flow_-h21_v21_0' begin='0' end='1000' number='2' from='-h21' to='v21' departSpeed='max' departPos='base' departLane='best'/> 
<flow id='flow_-v11_-h13_0' begin='0' end='1000' number='4' from='-v11' to='-h13' departSpeed='max' departPos='base' departLane='best'/> 
<flow id='flow_-v11_-h23_0' begin='0' end='1000' number='4' from='-v11' to='-h23' departSpeed='max' departPos='base' departLane='best'/> 
<flow id='flow_-v11_-v13_0' begin='0' end='1000' number='4' from='-v11' to='-v13' departSpeed='max' departPos='base' departLane='best'/> 
<flow id='flow_-v11_-v23_0' begin='0' end='1000' number='5' from='-v11' to='-v23' departSpeed='max' departPos='base' departLane='best'/> 
<flow id='flow_-v11_h11_0' begin='0' end='1000' number='4' from='-v11' to='h11' departSpeed='max' departPos='base' departLane='best'/> 
<flow id='flow_-v11_h21_0' begin='0' end='1000' number='4' from='-v11' to='h21' departSpeed='max' departPos='base' departLane='best'/> 
<flow id='flow_-v11_v21_0' begin='0' end='1000' number='3' from='-v11' to='v21' departSpeed='max' departPos='base' departLane='best'/> 
<flow id='flow_-v21_-h13_0' begin='0' end='1000' number='4' from='-v21' to='-h13' departSpeed='max' departPos='base' departLane='best'/> 
<flow id='flow_-v21_-h23_0' begin='0' end='1000' number='7' from='-v21' to='-h23' departSpeed='max' departPos='base' departLane='best'/> 
<flow id='flow_-v21_-v13_0' begin='0' end='1000' number='2' from='-v21' to='-v13' departSpeed='max' departPos='base' departLane='best'/> 
<flow id='flow_-v21_-v23_0' begin='0' end='1000' number='4' from='-v21' to='-v23' departSpeed='max' departPos='base' departLane='best'/> 
<flow id='flow_-v21_h11_0' begin='0' end='1000' number='5' from='-v21' to='h11' departSpeed='max' departPos='base' departLane='best'/> 
<flow id='flow_-v21_h21_0' begin='0' end='1000' number='7' from='-v21' to='h21' departSpeed='max' departPos='base' departLane='best'/> 
<flow id='flow_-v21_v11_0' begin='0' end='1000' number='4' from='-v21' to='v11' departSpeed='max' departPos='base' departLane='best'/> 
<flow id='flow_h13_-h23_0' begin='0' end='1000' number='3' from='h13' to='-h23' departSpeed='max' departPos='base' departLane='best'/> 
<flow id='flow_h13_-v13_0' begin='0' end='1000' number='4' from='h13' to='-v13' departSpeed='max' departPos='base' departLane='best'/> 
<flow id='flow_h13_-v23_0' begin='0' end='1000' number='4' from='h13' to='-v23' departSpeed='max' departPos='base' departLane='best'/> 
<flow id='flow_h13_h11_0' begin='0' end='1000' number='1' from='h13' to='h11' departSpeed='max' departPos='base' departLane='best'/> 
<flow id='flow_h13_h21_0' begin='0' end='1000' number='7' from='h13' to='h21' departSpeed='max' departPos='base' departLane='best'/> 
<flow id='flow_h13_v11_0' begin='0' end='1000' number='2' from='h13' to='v11' departSpeed='max' departPos='base' departLane='best'/> 
<flow id='flow_h13_v21_0' begin='0' end='1000' number='4' from='h13' to='v21' departSpeed='max' departPos='base' departLane='best'/> 
<flow id='flow_h23_-h13_0' begin='0' end='1000' number='5' from='h23' to='-h13' departSpeed='max' departPos='base' departLane='best'/> 
<flow id='flow_h23_-v13_0' begin='0' end='1000' number='1' from='h23' to='-v13' departSpeed='max' departPos='base' departLane='best'/> 
<flow id='flow_h23_-v23_0' begin='0' end='1000' number='1' from='h23' to='-v23' departSpeed='max' departPos='base' departLane='best'/> 
<flow id='flow_h23_h11_0' begin='0' end='1000' number='5' from='h23' to='h11' departSpeed='max' departPos='base' departLane='best'/> 
<flow id='flow_h23_h21_0' begin='0' end='1000' number='4' from='h23' to='h21' departSpeed='max' departPos='base' departLane='best'/> 
<flow id='flow_h23_v11_0' begin='0' end='1000' number='1' from='h23' to='v11' departSpeed='max' departPos='base' departLane='best'/> 
<flow id='flow_h23_v21_0' begin='0' end='1000' number='4' from='h23' to='v21' departSpeed='max' departPos='base' departLane='best'/> 
<flow id='flow_v13_-h13_0' begin='0' end='1000' number='1' from='v13' to='-h13' departSpeed='max' departPos='base' departLane='best'/> 
<flow id='flow_v13_-h23_0' begin='0' end='1000' number='5' from='v13' to='-h23' departSpeed='max' departPos='base' departLane='best'/> 
<flow id='flow_v13_-v23_0' begin='0' end='1000' number='4' from='v13' to='-v23' departSpeed='max' departPos='base' departLane='best'/> 
<flow id='flow_v13_h11_0' begin='0' end='1000' number='5' from='v13' to='h11' departSpeed='max' departPos='base' departLane='best'/> 
<flow id='flow_v13_h21_0' begin='0' end='1000' number='3' from='v13' to='h21' departSpeed='max' departPos='base' departLane='best'/> 
<flow id='flow_v13_v11_0' begin='0' end='1000' number='4' from='v13' to='v11' departSpeed='max' departPos='base' departLane='best'/> 
<flow id='flow_v13_v21_0' begin='0' end='1000' number='4' from='v13' to='v21' departSpeed='max' departPos='base' departLane='best'/> 
<flow id='flow_v23_-h13_0' begin='0' end='1000' number='1' from='v23' to='-h13' departSpeed='max' departPos='base' departLane='best'/> 
<flow id='flow_v23_-h23_0' begin='0' end='1000' number='3' from='v23' to='-h23' departSpeed='max' departPos='base' departLane='best'/> 
<flow id='flow_v23_-v13_0' begin='0' end='1000' number='4' from='v23' to='-v13' departSpeed='max' departPos='base' departLane='best'/> 
<flow id='flow_v23_h11_0' begin='0' end='1000' number='1' from='v23' to='h11' departSpeed='max' departPos='base' departLane='best'/> 
<flow id='flow_v23_h21_0' begin='0' end='1000' number='4' from='v23' to='h21' departSpeed='max' departPos='base' departLane='best'/> 
<flow id='flow_v23_v11_0' begin='0' end='1000' number='2' from='v23' to='v11' departSpeed='max' departPos='base' departLane='best'/> 
<flow id='flow_v23_v21_0' begin='0' end='1000' number='2' from='v23' to='v21' departSpeed='max' departPos='base' departLane='best'/> 
<flow id='flow_-h11_-h13_1000' begin='1000' end='2000' number='3' from='-h11' to='-h13' departSpeed='max' departPos='base' departLane='best'/> 
<flow id='flow_-h11_-h23_1000' begin='1000' end='2000' number='3' from='-h11' to='-h23' departSpeed='max' departPos='base' departLane='best'/> 
<flow id='flow_-h11_-v13_1000' begin='1000' end='2000' number='4' from='-h11' to='-v13' departSpeed='max' departPos='base' departLane='best'/> 
<flow id='flow_-h11_-v23_1000' begin='1000' end='2000' number='7' from='-h11' to='-v23' departSpeed='max' departPos='base' departLane='best'/> 
<flow id='flow_-h11_h21_1000' begin='1000' end='2000' number='1' from='-h11' to='h21' departSpeed='max' departPos='base' departLane='best'/> 
<flow id='flow_-h11_v11_1000' begin='1000' end='2000' number='4' from='-h11' to='v11' departSpeed='max' departPos='base' departLane='best'/> 
<flow id='flow_-h11_v21_1000' begin='1000' end='2000' number='4' from='-h11' to='v21' departSpeed='max' departPos='base' departLane='best'/> 
<flow id='flow_-h21_-h13_1000' begin='1000' end='2000' number='5' from='-h21' to='-h13' departSpeed='max' departPos='base' departLane='best'/> 
<flow id='flow_-h21_-h23_1000' begin='1000' end='2000' number='6' from='-h21' to='-h23' departSpeed='max' departPos='base' departLane='best'/> 
<flow id='flow_-h21_-v13_1000' begin='1000' end='2000' number='4' from='-h21' to='-v13' departSpeed='max' departPos='base' departLane='best'/> 
<flow id='flow_-h21_-v23_1000' begin='1000' end='2000' number='4' from='-h21' to='-v23' departSpeed='max' departPos='base' departLane='best'/> 
<flow id='flow_-h21_h11_1000' begin='1000' end='2000' number='7' from='-h21' to='h11' departSpeed='max' departPos='base' departLane='best'/> 
<flow id='flow_-h21_v11_1000' begin='1000' end='2000' number='4' from='-h21' to='v11' departSpeed='max' departPos='base' departLane='best'/> 
<flow id='flow_-h21_v21_1000' begin='1000' end='2000' number='5' from='-h21' to='v21' departSpeed='max' departPos='base' departLane='best'/> 
<flow id='flow_-v11_-h13_1000' begin='1000' end='2000' number='4' from='-v11' to='-h13' departSpeed='max' departPos='base' departLane='best'/> 
<flow id='flow_-v11_-h23_1000' begin='1000' end='2000' number='4' from='-v11' to='-h23' departSpeed='max' departPos='base' departLane='best'/> 
<flow id='flow_-v11_-v13_1000' begin='1000' end='2000' number='4' from='-v11' to='-v13' departSpeed='max' departPos='base' departLane='best'/> 
<flow id='flow_-v11_-v23_1000' begin='1000' end='2000' number='7' from='-v11' to='-v23' departSpeed='max' departPos='base' departLane='best'/> 
<flow id='flow_-v11_h11_1000' begin='1000' end='2000' number='1' from='-v11' to='h11' departSpeed='max' departPos='base' departLane='best'/> 
<flow id='flow_-v11_h21_1000' begin='1000' end='2000' number='4' from='-v11' to='h21' departSpeed='max' departPos='base' departLane='best'/> 
<flow id='flow_-v11_v21_1000' begin='1000' end='2000' number='6' from='-v11' to='v21' departSpeed='max' departPos='base' departLane='best'/> 
<flow id='flow_-v21_-h13_1000' begin='1000' end='2000' number='4' from='-v21' to='-h13' departSpeed='max' departPos='base' departLane='best'/> 
<flow id='flow_-v21_-h23_1000' begin='1000' end='2000' number='1' from='-v21' to='-h23' departSpeed='max' departPos='base' departLane='best'/> 
<flow id='flow_-v21_-v13_1000' begin='1000' end='2000' number='1' from='-v21' to='-v13' departSpeed='max' departPos='base' departLane='best'/> 
<flow id='flow_-v21_-v23_1000' begin='1000' end='2000' number='4' from='-v21' to='-v23' departSpeed='max' departPos='base' departLane='best'/> 
<flow id='flow_-v21_h11_1000' begin='1000' end='2000' number='4' from='-v21' to='h11' departSpeed='max' departPos='base' departLane='best'/> 
<flow id='flow_-v21_h21_1000' begin='1000' end='2000' number='4' from='-v21' to='h21' departSpeed='max' departPos='base' departLane='best'/> 
<flow id='flow_-v21_v11_1000' begin='1000' end='2000' number='1' from='-v21' to='v11' departSpeed='max' departPos='base' departLane='best'/> 
<flow id='flow_h13_-h23_1000' begin='1000' end='2000' number='2' from='h13' to='-h23' departSpeed='max' departPos='base' departLane='best'/> 
<flow id='flow_h13_-v13_1000' begin='1000' end='2000' number='4' from='h13' to='-v13' departSpeed='max' departPos='base' departLane='best'/> 
<flow id='flow_h13_-v23_1000' begin='1000' end='2000' number='4' from='h13' to='-v23' departSpeed='max' departPos='base' departLane='best'/> 
<flow id='flow_h13_h11_1000' begin='1000' end='2000' number='7' from='h13' to='h11' departSpeed='max' departPos='base' departLane='best'/> 
<flow id='flow_h13_h21_1000' begin='1000' end='2000' number='4' from='h13' to='h21' departSpeed='max' departPos='base' departLane='best'/> 
<flow id='flow_h13_v11_1000' begin='1000' end='2000' number='6' from='h13' to='v11' departSpeed='max' departPos='base' departLane='best'/> 
<flow id='flow_h13_v21_1000' begin='1000' end='2000' number='7' from='h13' to='v21' departSpeed='max' departPos='base' departLane='best'/> 
<flow id='flow_h23_-h13_1000' begin='1000' end='2000' number='2' from='h23' to='-h13' departSpeed='max' departPos='base' departLane='best'/> 
<flow id='flow_h23_-v13_1000' begin='1000' end='2000' number='4' from='h23' to='-v13' departSpeed='max' departPos='base' departLane='best'/> 
<flow id='flow_h23_-v23_1000' begin='1000' end='2000' number='7' from='h23' to='-v23' departSpeed='max' departPos='base' departLane='best'/> 
<flow id='flow_h23_h11_1000' begin='1000' end='2000' number='5' from='h23' to='h11' departSpeed='max' departPos='base' departLane='best'/> 
<flow id='flow_h23_h21_1000' begin='1000' end='2000' number='5' from='h23' to='h21' departSpeed='max' departPos='base' departLane='best'/> 
<flow id='flow_h23_v11_1000' begin='1000' end='2000' number='6' from='h23' to='v11' departSpeed='max' departPos='base' departLane='best'/> 
<flow id='flow_h23_v21_1000' begin='1000' end='2000' number='3' from='h23' to='v21' departSpeed='max' departPos='base' departLane='best'/> 
<flow id='flow_v13_-h13_1000' begin='1000' end='2000' number='4' from='v13' to='-h13' departSpeed='max' departPos='base' departLane='best'/> 
<flow id='flow_v13_-h23_1000' begin='1000' end='2000' number='4' from='v13' to='-h23' departSpeed='max' departPos='base' departLane='best'/> 
<flow id='flow_v13_-v23_1000' begin='1000' end='2000' number='4' from='v13' to='-v23' departSpeed='max' departPos='base' departLane='best'/> 
<flow id='flow_v13_h11_1000' begin='1000' end='2000' number='4' from='v13' to='h11' departSpeed='max' departPos='base' departLane='best'/> 
<flow id='flow_v13_h21_1000' begin='1000' end='2000' number='1' from='v13' to='h21' departSpeed='max' departPos='base' departLane='best'/> 
<flow id='flow_v13_v11_1000' begin='1000' end='2000' number='4' from='v13' to='v11' departSpeed='max' departPos='base' departLane='best'/> 
<flow id='flow_v13_v21_1000' begin='1000' end='2000' number='1' from='v13' to='v21' departSpeed='max' departPos='base' departLane='best'/> 
<flow id='flow_v23_-h13_1000' begin='1000' end='2000' number='4' from='v23' to='-h13' departSpeed='max' departPos='base' departLane='best'/> 
<flow id='flow_v23_-h23_1000' begin='1000' end='2000' number='7' from='v23' to='-h23' departSpeed='max' departPos='base' departLane='best'/> 
<flow id='flow_v23_-v13_1000' begin='1000' end='2000' number='4' from='v23' to='-v13' departSpeed='max' departPos='base' departLane='best'/> 
<flow id='flow_v23_h11_1000' begin='1000' end='2000' number='4' from='v23' to='h11' departSpeed='max' departPos='base' departLane='best'/> 
<flow id='flow_v23_h21_1000' begin='1000' end='2000' number='4' from='v23' to='h21' departSpeed='max' departPos='base' departLane='best'/> 
<flow id='flow_v23_v11_1000' begin='1000' end='2000' number='4' from='v23' to='v11' departSpeed='max' departPos='base' departLane='best'/> 
<flow id='flow_v23_v21_1000' begin='1000' end='2000' number='1' from='v23' to='v21' departSpeed='max' departPos='base' departLane='best'/> 
<flow id='flow_-h11_-h13_2000' begin='2000' end='3000' number='5' from='-h11' to='-h13' departSpeed='max' departPos='base' departLane='best'/> 
<flow id='flow_-h11_-h23_2000' begin='2000' end='3000' number='4' from='-h11' to='-h23' departSpeed='max' departPos='base' departLane='best'/> 
<flow id='flow_-h11_-v13_2000' begin='2000' end='3000' number='1' from='-h11' to='-v13' departSpeed='max' departPos='base' departLane='best'/> 
<flow id='flow_-h11_-v23_2000' begin='2000' end='3000' number='7' from='-h11' to='-v23' departSpeed='max' departPos='base' departLane='best'/> 
<flow id='flow_-h11_h21_2000' begin='2000' end='3000' number='4' from='-h11' to='h21' departSpeed='max' departPos='base' departLane='best'/> 
<flow id='flow_-h11_v11_2000' begin='2000' end='3000' number='4' from='-h11' to='v11' departSpeed='max' departPos='base' departLane='best'/> 
<flow id='flow_-h11_v21_2000' begin='2000' end='3000' number='4' from='-h11' to='v21' departSpeed='max' departPos='base' departLane='best'/> 
<flow id='flow_-h21_-h13_2000' begin='2000' end='3000' number='4' from='-h21' to='-h13' departSpeed='max' departPos='base' departLane='best'/> 
<flow id='flow_-h21_-h23_2000' begin='2000' end='3000' number='7' from='-h21' to='-h23' departSpeed='max' departPos='base' departLane='best'/> 
<flow id='flow_-h21_-v13_2000' begin='2000' end='3000' number='4' from='-h21' to='-v13' departSpeed='max' departPos='base' departLane='best'/> 
<flow id='flow_-h21_-v23_2000' begin='2000' end='3000' number='3' from='-h21' to='-v23' departSpeed='max' departPos='base' departLane='best'/> 
<flow id='flow_-h21_h11_2000' begin='2000' end='3000' number='2' from='-h21' to='h11' departSpeed='max' departPos='base' departLane='best'/> 
<flow id='flow_-h21_v11_2000' begin='2000' end='3000' number='2' from='-h21' to='v11' departSpeed='max' departPos='base' departLane='best'/> 
<flow id='flow_-h21_v21_2000' begin='2000' end='3000' number='1' from='-h21' to='v21' departSpeed='max' departPos='base' departLane='best'/> 
<flow id='flow_-v11_-h13_2000' begin='2000' end='3000' number='4' from='-v11' to='-h13' departSpeed='max' departPos='base' departLane='best'/> 
<flow id='flow_-v11_-h23_2000' begin='2000' end='3000' number='4' from='-v11' to='-h23' departSpeed='max' departPos='base' departLane='best'/> 
<flow id='flow_-v11_-v13_2000' begin='2000' end='3000' number='4' from='-v11' to='-v13' departSpeed='max' departPos='base' departLane='best'/> 
<flow id='flow_-v11_-v23_2000' begin='2000' end='3000' number='4' from='-v11' to='-v23' departSpeed='max' departPos='base' departLane='best'/> 
<flow id='flow_-v11_h11_2000' begin='2000' end='3000' number='2' from='-v11' to='h11' departSpeed='max' departPos='base' departLane='best'/> 
<flow id='flow_-v11_h21_2000' begin='2000' end='3000' number='7' from='-v11' to='h21' departSpeed='max' departPos='base' departLane='best'/> 
<flow id='flow_-v11_v21_2000' begin='2000' end='3000' number='5' from='-v11' to='v21' departSpeed='max' departPos='base' departLane='best'/> 
<flow id='flow_-v21_-h13_2000' begin='2000' end='3000' number='4' from='-v21' to='-h13' departSpeed='max' departPos='base' departLane='best'/> 
<flow id='flow_-v21_-h23_2000' begin='2000' end='3000' number='4' from='-v21' to='-h23' departSpeed='max' departPos='base' departLane='best'/> 
<flow id='flow_-v21_-v13_2000' begin='2000' end='3000' number='4' from='-v21' to='-v13' departSpeed='max' departPos='base' departLane='best'/> 
<flow id='flow_-v21_-v23_2000' begin='2000' end='3000' number='7' from='-v21' to='-v23' departSpeed='max' departPos='base' departLane='best'/> 
<flow id='flow_-v21_h11_2000' begin='2000' end='3000' number='3' from='-v21' to='h11' departSpeed='max' departPos='base' departLane='best'/> 
<flow id='flow_-v21_h21_2000' begin='2000' end='3000' number='4' from='-v21' to='h21' departSpeed='max' departPos='base' departLane='best'/> 
<flow id='flow_-v21_v11_2000' begin='2000' end='3000' number='7' from='-v21' to='v11' departSpeed='max' departPos='base' departLane='best'/> 
<flow id='flow_h13_-h23_2000' begin='2000' end='3000' number='4' from='h13' to='-h23' departSpeed='max' departPos='base' departLane='best'/> 
<flow id='flow_h13_-v13_2000' begin='2000' end='3000' number='4' from='h13' to='-v13' departSpeed='max' departPos='base' departLane='best'/> 
<flow id='flow_h13_-v23_2000' begin='2000' end='3000' number='4' from='h13' to='-v23' departSpeed='max' departPos='base' departLane='best'/> 
<flow id='flow_h13_h11_2000' begin='2000' end='3000' number='4' from='h13' to='h11' departSpeed='max' departPos='base' departLane='best'/> 
<flow id='flow_h13_h21_2000' begin='2000' end='3000' number='4' from='h13' to='h21' departSpeed='max' departPos='base' departLane='best'/> 
<flow id='flow_h13_v11_2000' begin='2000' end='3000' number='6' from='h13' to='v11' departSpeed='max' departPos='base' departLane='best'/> 
<flow id='flow_h13_v21_2000' begin='2000' end='3000' number='4' from='h13' to='v21' departSpeed='max' departPos='base' departLane='best'/> 
<flow id='flow_h23_-h13_2000' begin='2000' end='3000' number='7' from='h23' to='-h13' departSpeed='max' departPos='base' departLane='best'/> 
<flow id='flow_h23_-v13_2000' begin='2000' end='3000' number='4' from='h23' to='-v13' departSpeed='max' departPos='base' departLane='best'/> 
<flow id='flow_h23_-v23_2000' begin='2000' end='3000' number='4' from='h23' to='-v23' departSpeed='max' departPos='base' departLane='best'/> 
<flow id='flow_h23_h11_2000' begin='2000' end='3000' number='4' from='h23' to='h11' departSpeed='max' departPos='base' departLane='best'/> 
<flow id='flow_h23_h21_2000' begin='2000' end='3000' number='2' from='h23' to='h21' departSpeed='max' departPos='base' departLane='best'/> 
<flow id='flow_h23_v11_2000' begin='2000' end='3000' number='5' from='h23' to='v11' departSpeed='max' departPos='base' departLane='best'/> 
<flow id='flow_h23_v21_2000' begin='2000' end='3000' number='3' from='h23' to='v21' departSpeed='max' departPos='base' departLane='best'/> 
<flow id='flow_v13_-h13_2000' begin='2000' end='3000' number='4' from='v13' to='-h13' departSpeed='max' departPos='base' departLane='best'/> 
<flow id='flow_v13_-h23_2000' begin='2000' end='3000' number='2' from='v13' to='-h23' departSpeed='max' departPos='base' departLane='best'/> 
<flow id='flow_v13_-v23_2000' begin='2000' end='3000' number='1' from='v13' to='-v23' departSpeed='max' departPos='base' departLane='best'/> 
<flow id='flow_v13_h11_2000' begin='2000' end='3000' number='7' from='v13' to='h11' departSpeed='max' departPos='base' departLane='best'/> 
<flow id='flow_v13_h21_2000' begin='2000' end='3000' number='4' from='v13' to='h21' departSpeed='max' departPos='base' departLane='best'/> 
<flow id='flow_v13_v11_2000' begin='2000' end='3000' number='2' from='v13' to='v11' departSpeed='max' departPos='base' departLane='best'/> 
<flow id='flow_v13_v21_2000' begin='2000' end='3000' number='1' from='v13' to='v21' departSpeed='max' departPos='base' departLane='best'/> 
<flow id='flow_v23_-h13_2000' begin='2000' end='3000' number='4' from='v23' to='-h13' departSpeed='max' departPos='base' departLane='best'/> 
<flow id='flow_v23_-h23_2000' begin='2000' end='3000' number='4' from='v23' to='-h23' departSpeed='max' departPos='base' departLane='best'/> 
<flow id='flow_v23_-v13_2000' begin='2000' end='3000' number='4' from='v23' to='-v13' departSpeed='max' departPos='base' departLane='best'/> 
<flow id='flow_v23_h11_2000' begin='2000' end='3000' number='5' from='v23' to='h11' departSpeed='max' departPos='base' departLane='best'/> 
<flow id='flow_v23_h21_2000' begin='2000' end='3000' number='4' from='v23' to='h21' departSpeed='max' departPos='base' departLane='best'/> 
<flow id='flow_v23_v11_2000' begin='2000' end='3000' number='4' from='v23' to='v11' departSpeed='max' departPos='base' departLane='best'/> 
<flow id='flow_v23_v21_2000' begin='2000' end='3000' number='4' from='v23' to='v21' departSpeed='max' departPos='base' departLane='best'/> 
<flow id='flow_-h11_-h13_3000' begin='3000' end='4000' number='3' from='-h11' to='-h13' departSpeed='max' departPos='base' departLane='best'/> 
<flow id='flow_-h11_-h23_3000' begin='3000' end='4000' number='3' from='-h11' to='-h23' departSpeed='max' departPos='base' departLane='best'/> 
<flow id='flow_-h11_-v13_3000' begin='3000' end='4000' number='4' from='-h11' to='-v13' departSpeed='max' departPos='base' departLane='best'/> 
<flow id='flow_-h11_-v23_3000' begin='3000' end='4000' number='3' from='-h11' to='-v23' departSpeed='max' departPos='base' departLane='best'/> 
<flow id='flow_-h11_h21_3000' begin='3000' end='4000' number='4' from='-h11' to='h21' departSpeed='max' departPos='base' departLane='best'/> 
<flow id='flow_-h11_v11_3000' begin='3000' end='4000' number='4' from='-h11' to='v11' departSpeed='max' departPos='base' departLane='best'/> 
<flow id='flow_-h11_v21_3000' begin='3000' end='4000' number='5' from='-h11' to='v21' departSpeed='max' departPos='base' departLane='best'/> 
<flow id='flow_-h21_-h13_3000' begin='3000' end='4000' number='2' from='-h21' to='-h13' departSpeed='max' departPos='base' departLane='best'/> 
<flow id='flow_-h21_-h23_3000' begin='3000' end='4000' number='4' from='-h21' to='-h23' departSpeed='max' departPos='base' departLane='best'/> 
<flow id='flow_-h21_-v13_3000' begin='3000' end='4000' number='4' from='-h21' to='-v13' departSpeed='max' departPos='base' departLane='best'/> 
<flow id='flow_-h21_-v23_3000' begin='3000' end='4000' number='3' from='-h21' to='-v23' departSpeed='max' departPos='base' departLane='best'/> 
<flow id='flow_-h21_h11_3000' begin='3000' end='4000' number='2' from='-h21' to='h11' departSpeed='max' departPos='base' departLane='best'/> 
<flow id='flow_-h21_v11_3000' begin='3000' end='4000' number='4' from='-h21' to='v11' departSpeed='max' departPos='base' departLane='best'/> 
<flow id='flow_-h21_v21_3000' begin='3000' end='4000' number='4' from='-h21' to='v21' departSpeed='max' departPos='base' departLane='best'/> 
<flow id='flow_-v11_-h13_3000' begin='3000' end='4000' number='4' from='-v11' to='-h13' departSpeed='max' departPos='base' departLane='best'/> 
<flow id='flow_-v11_-h23_3000' begin='3000' end='4000' number='4' from='-v11' to='-h23' departSpeed='max' departPos='base' departLane='best'/> 
<flow id='flow_-v11_-v13_3000' begin='3000' end='4000' number='5' from='-v11' to='-v13' departSpeed='max' departPos='base' departLane='best'/> 
<flow id='flow_-v11_-v23_3000' begin='3000' end='4000' number='3' from='-v11' to='-v23' departSpeed='max' departPos='base' departLane='best'/> 
<flow id='flow_-v11_h11_3000' begin='3000' end='4000' number='4' from='-v11' to='h11' departSpeed='max' departPos='base' departLane='best'/> 
<flow id='flow_-v11_h21_3000' begin='3000' end='4000' number='4' from='-v11' to='h21' departSpeed='max' departPos='base' departLane='best'/> 
<flow id='flow_-v11_v21_3000' begin='3000' end='4000' number='2' from='-v11' to='v21' departSpeed='max' departPos='base' departLane='best'/> 