<routes>
<trip id='trip_0Ni_0Wo' depart='0' from='0Ni' to='0Wo' />
<trip id='trip_0Ni_1No' depart='0' from='0Ni' to='1No' />
<trip id='trip_0Ni_2Eo' depart='0' from='0Ni' to='2Eo' />
<trip id='trip_0Ni_2No' depart='0' from='0Ni' to='2No' />
<trip id='trip_0Ni_3Wo' depart='0' from='0Ni' to='3Wo' />
<trip id='trip_0Ni_5Eo' depart='0' from='0Ni' to='5Eo' />
<trip id='trip_0Ni_6So' depart='0' from='0Ni' to='6So' />
<trip id='trip_0Ni_6Wo' depart='0' from='0Ni' to='6Wo' />
<trip id='trip_0Ni_7So' depart='0' from='0Ni' to='7So' />
<trip id='trip_0Ni_8Eo' depart='0' from='0Ni' to='8Eo' />
<trip id='trip_0Ni_8So' depart='0' from='0Ni' to='8So' />
<trip id='trip_0Wi_0No' depart='0' from='0Wi' to='0No' />
<trip id='trip_0Wi_1No' depart='0' from='0Wi' to='1No' />
<trip id='trip_0Wi_2Eo' depart='0' from='0Wi' to='2Eo' />
<trip id='trip_0Wi_2No' depart='0' from='0Wi' to='2No' />
<trip id='trip_0Wi_3Wo' depart='0' from='0Wi' to='3Wo' />
<trip id='trip_0Wi_5Eo' depart='0' from='0Wi' to='5Eo' />
<trip id='trip_0Wi_6So' depart='0' from='0Wi' to='6So' />
<trip id='trip_0Wi_6Wo' depart='0' from='0Wi' to='6Wo' />
<trip id='trip_0Wi_7So' depart='0' from='0Wi' to='7So' />
<trip id='trip_0Wi_8Eo' depart='0' from='0Wi' to='8Eo' />
<trip id='trip_0Wi_8So' depart='0' from='0Wi' to='8So' />
<trip id='trip_1Ni_0No' depart='0' from='1Ni' to='0No' />
<trip id='trip_1Ni_0Wo' depart='0' from='1Ni' to='0Wo' />
<trip id='trip_1Ni_2Eo' depart='0' from='1Ni' to='2Eo' />
<trip id='trip_1Ni_2No' depart='0' from='1Ni' to='2No' />
<trip id='trip_1Ni_3Wo' depart='0' from='1Ni' to='3Wo' />
<trip id='trip_1Ni_5Eo' depart='0' from='1Ni' to='5Eo' />
<trip id='trip_1Ni_6So' depart='0' from='1Ni' to='6So' />
<trip id='trip_1Ni_6Wo' depart='0' from='1Ni' to='6Wo' />
<trip id='trip_1Ni_7So' depart='0' from='1Ni' to='7So' />
<trip id='trip_1Ni_8Eo' depart='0' from='1Ni' to='8Eo' />
<trip id='trip_1Ni_8So' depart='0' from='1Ni' to='8So' />
<trip id='trip_2Ei_0No' depart='0' from='2Ei' to='0No' />
<trip id='trip_2Ei_0Wo' depart='0' from='2Ei' to='0Wo' />
<trip id='trip_2Ei_1No' depart='0' from='2Ei' to='1No' />
<trip id='trip_2Ei_2No' depart='0' from='2Ei' to='2No' />
<trip id='trip_2Ei_3Wo' depart='0' from='2Ei' to='3Wo' />
<trip id='trip_2Ei_5Eo' depart='0' from='2Ei' to='5Eo' />
<trip id='trip_2Ei_6So' depart='0' from='2Ei' to='6So' />
<trip id='trip_2Ei_6Wo' depart='0' from='2Ei' to='6Wo' />
<trip id='trip_2Ei_7So' depart='0' from='2Ei' to='7So' />
<trip id='trip_2Ei_8Eo' depart='0' from='2Ei' to='8Eo' />
<trip id='trip_2Ei_8So' depart='0' from='2Ei' to='8So' />
<trip id='trip_2Ni_0No' depart='0' from='2Ni' to='0No' />
<trip id='trip_2Ni_0Wo' depart='0' from='2Ni' to='0Wo' />
<trip id='trip_2Ni_1No' depart='0' from='2Ni' to='1No' />
<trip id='trip_2Ni_2Eo' depart='0' from='2Ni' to='2Eo' />
<trip id='trip_2Ni_3Wo' depart='0' from='2Ni' to='3Wo' />
<trip id='trip_2Ni_5Eo' depart='0' from='2Ni' to='5Eo' />
<trip id='trip_2Ni_6So' depart='0' from='2Ni' to='6So' />
<trip id='trip_2Ni_6Wo' depart='0' from='2Ni' to='6Wo' />
<trip id='trip_2Ni_7So' depart='0' from='2Ni' to='7So' />
<trip id='trip_2Ni_8Eo' depart='0' from='2Ni' to='8Eo' />
<trip id='trip_2Ni_8So' depart='0' from='2Ni' to='8So' />
<trip id='trip_3Wi_0No' depart='0' from='3Wi' to='0No' />
<trip id='trip_3Wi_0Wo' depart='0' from='3Wi' to='0Wo' />
<trip id='trip_3Wi_1No' depart='0' from='3Wi' to='1No' />
<trip id='trip_3Wi_2Eo' depart='0' from='3Wi' to='2Eo' />
<trip id='trip_3Wi_2No' depart='0' from='3Wi' to='2No' />
<trip id='trip_3Wi_5Eo' depart='0' from='3Wi' to='5Eo' />
<trip id='trip_3Wi_6So' depart='0' from='3Wi' to='6So' />
<trip id='trip_3Wi_6Wo' depart='0' from='3Wi' to='6Wo' />
<trip id='trip_3Wi_7So' depart='0' from='3Wi' to='7So' />
<trip id='trip_3Wi_8Eo' depart='0' from='3Wi' to='8Eo' />
<trip id='trip_3Wi_8So' depart='0' from='3Wi' to='8So' />
<trip id='trip_5Ei_0No' depart='0' from='5Ei' to='0No' />
<trip id='trip_5Ei_0Wo' depart='0' from='5Ei' to='0Wo' />
<trip id='trip_5Ei_1No' depart='0' from='5Ei' to='1No' />
<trip id='trip_5Ei_2Eo' depart='0' from='5Ei' to='2Eo' />
<trip id='trip_5Ei_2No' depart='0' from='5Ei' to='2No' />
<trip id='trip_5Ei_3Wo' depart='0' from='5Ei' to='3Wo' />
<trip id='trip_5Ei_6So' depart='0' from='5Ei' to='6So' />
<trip id='trip_5Ei_6Wo' depart='0' from='5Ei' to='6Wo' />
<trip id='trip_5Ei_7So' depart='0' from='5Ei' to='7So' />
<trip id='trip_5Ei_8Eo' depart='0' from='5Ei' to='8Eo' />
<trip id='trip_5Ei_8So' depart='0' from='5Ei' to='8So' />
<trip id='trip_6Si_0No' depart='0' from='6Si' to='0No' />
<trip id='trip_6Si_0Wo' depart='0' from='6Si' to='0Wo' />
<trip id='trip_6Si_1No' depart='0' from='6Si' to='1No' />
<trip id='trip_6Si_2Eo' depart='0' from='6Si' to='2Eo' />
<trip id='trip_6Si_2No' depart='0' from='6Si' to='2No' />
<trip id='trip_6Si_3Wo' depart='0' from='6Si' to='3Wo' />
<trip id='trip_6Si_5Eo' depart='0' from='6Si' to='5Eo' />
<trip id='trip_6Si_6Wo' depart='0' from='6Si' to='6Wo' />
<trip id='trip_6Si_7So' depart='0' from='6Si' to='7So' />
<trip id='trip_6Si_8Eo' depart='0' from='6Si' to='8Eo' />
<trip id='trip_6Si_8So' depart='0' from='6Si' to='8So' />
<trip id='trip_6Wi_0No' depart='0' from='6Wi' to='0No' />
<trip id='trip_6Wi_0Wo' depart='0' from='6Wi' to='0Wo' />
<trip id='trip_6Wi_1No' depart='0' from='6Wi' to='1No' />
<trip id='trip_6Wi_2Eo' depart='0' from='6Wi' to='2Eo' />
<trip id='trip_6Wi_2No' depart='0' from='6Wi' to='2No' />
<trip id='trip_6Wi_3Wo' depart='0' from='6Wi' to='3Wo' />
<trip id='trip_6Wi_5Eo' depart='0' from='6Wi' to='5Eo' />
<trip id='trip_6Wi_6So' depart='0' from='6Wi' to='6So' />
<trip id='trip_6Wi_7So' depart='0' from='6Wi' to='7So' />
<trip id='trip_6Wi_8Eo' depart='0' from='6Wi' to='8Eo' />
<trip id='trip_6Wi_8So' depart='0' from='6Wi' to='8So' />
<trip id='trip_7Si_0No' depart='0' from='7Si' to='0No' />
<trip id='trip_7Si_0Wo' depart='0' from='7Si' to='0Wo' />
<trip id='trip_7Si_1No' depart='0' from='7Si' to='1No' />
<trip id='trip_7Si_2Eo' depart='0' from='7Si' to='2Eo' />
<trip id='trip_7Si_2No' depart='0' from='7Si' to='2No' />
<trip id='trip_7Si_3Wo' depart='0' from='7Si' to='3Wo' />
<trip id='trip_7Si_5Eo' depart='0' from='7Si' to='5Eo' />
<trip id='trip_7Si_6So' depart='0' from='7Si' to='6So' />
<trip id='trip_7Si_6Wo' depart='0' from='7Si' to='6Wo' />
<trip id='trip_7Si_8Eo' depart='0' from='7Si' to='8Eo' />
<trip id='trip_7Si_8So' depart='0' from='7Si' to='8So' />
<trip id='trip_8Ei_0No' depart='0' from='8Ei' to='0No' />
<trip id='trip_8Ei_0Wo' depart='0' from='8Ei' to='0Wo' />
<trip id='trip_8Ei_1No' depart='0' from='8Ei' to='1No' />
<trip id='trip_8Ei_2Eo' depart='0' from='8Ei' to='2Eo' />
<trip id='trip_8Ei_2No' depart='0' from='8Ei' to='2No' />
<trip id='trip_8Ei_3Wo' depart='0' from='8Ei' to='3Wo' />
<trip id='trip_8Ei_5Eo' depart='0' from='8Ei' to='5Eo' />
<trip id='trip_8Ei_6So' depart='0' from='8Ei' to='6So' />
<trip id='trip_8Ei_6Wo' depart='0' from='8Ei' to='6Wo' />
<trip id='trip_8Ei_7So' depart='0' from='8Ei' to='7So' />
<trip id='trip_8Ei_8So' depart='0' from='8Ei' to='8So' />
<trip id='trip_8Si_0No' depart='0' from='8Si' to='0No' />
<trip id='trip_8Si_0Wo' depart='0' from='8Si' to='0Wo' />
<trip id='trip_8Si_1No' depart='0' from='8Si' to='1No' />
<trip id='trip_8Si_2Eo' depart='0' from='8Si' to='2Eo' />
<trip id='trip_8Si_2No' depart='0' from='8Si' to='2No' />
<trip id='trip_8Si_3Wo' depart='0' from='8Si' to='3Wo' />
<trip id='trip_8Si_5Eo' depart='0' from='8Si' to='5Eo' />
<trip id='trip_8Si_6So' depart='0' from='8Si' to='6So' />
<trip id='trip_8Si_6Wo' depart='0' from='8Si' to='6Wo' />
<trip id='trip_8Si_7So' depart='0' from='8Si' to='7So' />
<trip id='trip_8Si_8Eo' depart='0' from='8Si' to='8Eo' />
<flow id='flow_0Ni_0Wo_0' begin='0' end='1000' number='3' from='0Ni' to='0Wo' departSpeed='max' departPos='base' departLane='best'/> 
<flow id='flow_0Ni_1No_0' begin='0' end='1000' number='3' from='0Ni' to='1No' departSpeed='max' departPos='base' departLane='best'/> 
<flow id='flow_0Ni_2Eo_0' begin='0' end='1000' number='4' from='0Ni' to='2Eo' departSpeed='max' departPos='base' departLane='best'/> 
<flow id='flow_0Ni_2No_0' begin='0' end='1000' number='3' from='0Ni' to='2No' departSpeed='max' departPos='base' departLane='best'/> 
<flow id='flow_0Ni_3Wo_0' begin='0' end='1000' number='3' from='0Ni' to='3Wo' departSpeed='max' departPos='base' departLane='best'/> 
<flow id='flow_0Ni_5Eo_0' begin='0' end='1000' number='2' from='0Ni' to='5Eo' departSpeed='max' departPos='base' departLane='best'/> 
<flow id='flow_0Ni_6So_0' begin='0' end='1000' number='4' from='0Ni' to='6So' departSpeed='max' departPos='base' departLane='best'/> 
<flow id='flow_0Ni_6Wo_0' begin='0' end='1000' number='3' from='0Ni' to='6Wo' departSpeed='max' departPos='base' departLane='best'/> 
<flow id='flow_0Ni_7So_0' begin='0' end='1000' number='4' from='0Ni' to='7So' departSpeed='max' departPos='base' departLane='best'/> 
<flow id='flow_0Ni_8Eo_0' begin='0' end='1000' number='3' from='0Ni' to='8Eo' departSpeed='max' departPos='base' departLane='best'/> 
<flow id='flow_0Ni_8So_0' begin='0' end='1000' number='3' from='0Ni' to='8So' departSpeed='max' departPos='base' departLane='best'/> 
<flow id='flow_0Wi_0No_0' begin='0' end='1000' number='3' from='0Wi' to='0No' departSpeed='max' departPos='base' departLane='best'/> 
<flow id='flow_0Wi_1No_0' begin='0' end='1000' number='3' from='0Wi' to='1No' departSpeed='max' departPos='base' departLane='best'/> 
<flow id='flow_0Wi_2Eo_0' begin='0' end='1000' number='3' from='0Wi' to='2Eo' departSpeed='max' departPos='base' departLane='best'/> 
<flow id='flow_0Wi_2No_0' begin='0' end='1000' number='1' from='0Wi' to='2No' departSpeed='max' departPos='base' departLane='best'/> 
<flow id='flow_0Wi_3Wo_0' begin='0' end='1000' number='3' from='0Wi' to='3Wo' departSpeed='max' departPos='base' departLane='best'/> 
<flow id='flow_0Wi_5Eo_0' begin='0' end='1000' number='3' from='0Wi' to='5Eo' departSpeed='max' departPos='base' departLane='best'/> 
<flow id='flow_0Wi_6So_0' begin='0' end='1000' number='1' from='0Wi' to='6So' departSpeed='max' departPos='base' departLane='best'/> 
<flow id='flow_0Wi_6Wo_0' begin='0' end='1000' number='1' from='0Wi' to='6Wo' departSpeed='max' departPos='base' departLane='best'/> 
<flow id='flow_0Wi_7So_0' begin='0' end='1000' number='3' from='0Wi' to='7So' departSpeed='max' departPos='base' departLane='best'/> 
<flow id='flow_0Wi_8Eo_0' begin='0' end='1000' number='5' from='0Wi' to='8Eo' departSpeed='max' departPos='base' departLane='best'/> 
<flow id='flow_0Wi_8So_0' begin='0' end='1000' number='3' from='0Wi' to='8So' departSpeed='max' departPos='base' departLane='best'/> 
<flow id='flow_1Ni_0No_0' begin='0' end='1000' number='4' from='1Ni' to='0No' departSpeed='max' departPos='base' departLane='best'/> 
<flow id='flow_1Ni_0Wo_0' begin='0' end='1000' number='3' from='1Ni' to='0Wo' departSpeed='max' departPos='base' departLane='best'/> 
<flow id='flow_1Ni_2Eo_0' begin='0' end='1000' number='3' from='1Ni' to='2Eo' departSpeed='max' departPos='base' departLane='best'/> 
<flow id='flow_1Ni_2No_0' begin='0' end='1000' number='2' from='1Ni' to='2No' departSpeed='max' departPos='base' departLane='best'/> 
<flow id='flow_1Ni_3Wo_0' begin='0' end='1000' number='2' from='1Ni' to='3Wo' departSpeed='max' departPos='base' departLane='best'/> 
<flow id='flow_1Ni_5Eo_0' begin='0' end='1000' number='3' from='1Ni' to='5Eo' departSpeed='max' departPos='base' departLane='best'/> 
<flow id='flow_1Ni_6So_0' begin='0' end='1000' number='5' from='1Ni' to='6So' departSpeed='max' departPos='base' departLane='best'/> 
<flow id='flow_1Ni_6Wo_0' begin='0' end='1000' number='3' from='1Ni' to='6Wo' departSpeed='max' departPos='base' departLane='best'/> 
<flow id='flow_1Ni_7So_0' begin='0' end='1000' number='3' from='1Ni' to='7So' departSpeed='max' departPos='base' departLane='best'/> 
<flow id='flow_1Ni_8Eo_0' begin='0' end='1000' number='3' from='1Ni' to='8Eo' departSpeed='max' departPos='base' departLane='best'/> 
<flow id='flow_1Ni_8So_0' begin='0' end='1000' number='4' from='1Ni' to='8So' departSpeed='max' departPos='base' departLane='best'/> 
<flow id='flow_2Ei_0No_0' begin='0' end='1000' number='1' from='2Ei' to='0No' departSpeed='max' departPos='base' departLane='best'/> 
<flow id='flow_2Ei_0Wo_0' begin='0' end='1000' number='1' from='2Ei' to='0Wo' departSpeed='max' departPos='base' departLane='best'/> 
<flow id='flow_2Ei_1No_0' begin='0' end='1000' number='3' from='2Ei' to='1No' departSpeed='max' departPos='base' departLane='best'/> 
<flow id='flow_2Ei_2No_0' begin='0' end='1000' number='3' from='2Ei' to='2No' departSpeed='max' departPos='base' departLane='best'/> 
<flow id='flow_2Ei_3Wo_0' begin='0' end='1000' number='3' from='2Ei' to='3Wo' departSpeed='max' departPos='base' departLane='best'/> 
<flow id='flow_2Ei_5Eo_0' begin='0' end='1000' number='2' from='2Ei' to='5Eo' departSpeed='max' departPos='base' departLane='best'/> 
<flow id='flow_2Ei_6So_0' begin='0' end='1000' number='3' from='2Ei' to='6So' departSpeed='max' departPos='base' departLane='best'/> 
<flow id='flow_2Ei_6Wo_0' begin='0' end='1000' number='3' from='2Ei' to='6Wo' departSpeed='max' departPos='base' departLane='best'/> 
<flow id='flow_2Ei_7So_0' begin='0' end='1000' number='3' from='2Ei' to='7So' departSpeed='max' departPos='base' departLane='best'/> 
<flow id='flow_2Ei_8Eo_0' begin='0' end='1000' number='3' from='2Ei' to='8Eo' departSpeed='max' departPos='base' departLane='best'/> 
<flow id='flow_2Ei_8So_0' begin='0' end='1000' number='5' from='2Ei' to='8So' departSpeed='max' departPos='base' departLane='best'/> 
<flow id='flow_2Ni_0No_0' begin='0' end='1000' number='1' from='2Ni' to='0No' departSpeed='max' departPos='base' departLane='best'/> 
<flow id='flow_2Ni_0Wo_0' begin='0' end='1000' number='4' from='2Ni' to='0Wo' departSpeed='max' departPos='base' departLane='best'/> 
<flow id='flow_2Ni_1No_0' begin='0' end='1000' number='1' from='2Ni' to='1No' departSpeed='max' departPos='base' departLane='best'/> 
<flow id='flow_2Ni_2Eo_0' begin='0' end='1000' number='4' from='2Ni' to='2Eo' departSpeed='max' departPos='base' departLane='best'/> 
<flow id='flow_2Ni_3Wo_0' begin='0' end='1000' number='3' from='2Ni' to='3Wo' departSpeed='max' departPos='base' departLane='best'/> 
<flow id='flow_2Ni_5Eo_0' begin='0' end='1000' number='3' from='2Ni' to='5Eo' departSpeed='max' departPos='base' departLane='best'/> 
<flow id='flow_2Ni_6So_0' begin='0' end='1000' number='3' from='2Ni' to='6So' departSpeed='max' departPos='base' departLane='best'/> 
<flow id='flow_2Ni_6Wo_0' begin='0' end='1000' number='3' from='2Ni' to='6Wo' departSpeed='max' departPos='base' departLane='best'/> 
<flow id='flow_2Ni_7So_0' begin='0' end='1000' number='4' from='2Ni' to='7So' departSpeed='max' departPos='base' departLane='best'/> 
<flow id='flow_2Ni_8Eo_0' begin='0' end='1000' number='5' from='2Ni' to='8Eo' departSpeed='max' departPos='base' departLane='best'/> 
<flow id='flow_2Ni_8So_0' begin='0' end='1000' number='2' from='2Ni' to='8So' departSpeed='max' departPos='base' departLane='best'/> 
<flow id='flow_3Wi_0No_0' begin='0' end='1000' number='3' from='3Wi' to='0No' departSpeed='max' departPos='base' departLane='best'/> 
<flow id='flow_3Wi_0Wo_0' begin='0' end='1000' number='5' from='3Wi' to='0Wo' departSpeed='max' departPos='base' departLane='best'/> 
<flow id='flow_3Wi_1No_0' begin='0' end='1000' number='3' from='3Wi' to='1No' departSpeed='max' departPos='base' departLane='best'/> 
<flow id='flow_3Wi_2Eo_0' begin='0' end='1000' number='3' from='3Wi' to='2Eo' departSpeed='max' departPos='base' departLane='best'/> 
<flow id='flow_3Wi_2No_0' begin='0' end='1000' number='5' from='3Wi' to='2No' departSpeed='max' departPos='base' departLane='best'/> 
<flow id='flow_3Wi_5Eo_0' begin='0' end='1000' number='3' from='3Wi' to='5Eo' departSpeed='max' departPos='base' departLane='best'/> 
<flow id='flow_3Wi_6So_0' begin='0' end='1000' number='2' from='3Wi' to='6So' departSpeed='max' departPos='base' departLane='best'/> 
<flow id='flow_3Wi_6Wo_0' begin='0' end='1000' number='1' from='3Wi' to='6Wo' departSpeed='max' departPos='base' departLane='best'/> 
<flow id='flow_3Wi_7So_0' begin='0' end='1000' number='3' from='3Wi' to='7So' departSpeed='max' departPos='base' departLane='best'/> 
<flow id='flow_3Wi_8Eo_0' begin='0' end='1000' number='3' from='3Wi' to='8Eo' departSpeed='max' departPos='base' departLane='best'/> 
<flow id='flow_3Wi_8So_0' begin='0' end='1000' number='3' from='3Wi' to='8So' departSpeed='max' departPos='base' departLane='best'/> 
<flow id='flow_5Ei_0No_0' begin='0' end='1000' number='3' from='5Ei' to='0No' departSpeed='max' departPos='base' departLane='best'/> 
<flow id='flow_5Ei_0Wo_0' begin='0' end='1000' number='3' from='5Ei' to='0Wo' departSpeed='max' departPos='base' departLane='best'/> 
<flow id='flow_5Ei_1No_0' begin='0' end='1000' number='2' from='5Ei' to='1No' departSpeed='max' departPos='base' departLane='best'/> 
<flow id='flow_5Ei_2Eo_0' begin='0' end='1000' number='4' from='5Ei' to='2Eo' departSpeed='max' departPos='base' departLane='best'/> 
<flow id='flow_5Ei_2No_0' begin='0' end='1000' number='3' from='5Ei' to='2No' departSpeed='max' departPos='base' departLane='best'/> 
<flow id='flow_5Ei_3Wo_0' begin='0' end='1000' number='2' from='5Ei' to='3Wo' departSpeed='max' departPos='base' departLane='best'/> 
<flow id='flow_5Ei_6So_0' begin='0' end='1000' number='3' from='5Ei' to='6So' departSpeed='max' departPos='base' departLane='best'/> 
<flow id='flow_5Ei_6Wo_0' begin='0' end='1000' number='5' from='5Ei' to='6Wo' departSpeed='max' departPos='base' departLane='best'/> 
<flow id='flow_5Ei_7So_0' begin='0' end='1000' number='5' from='5Ei' to='7So' departSpeed='max' departPos='base' departLane='best'/> 
<flow id='flow_5Ei_8Eo_0' begin='0' end='1000' number='4' from='5Ei' to='8Eo' departSpeed='max' departPos='base' departLane='best'/> 
<flow id='flow_5Ei_8So_0' begin='0' end='1000' number='3' from='5Ei' to='8So' departSpeed='max' departPos='base' departLane='best'/> 
<flow id='flow_6Si_0No_0' begin='0' end='1000' number='3' from='6Si' to='0No' departSpeed='max' departPos='base' departLane='best'/> 
<flow id='flow_6Si_0Wo_0' begin='0' end='1000' number='3' from='6Si' to='0Wo' departSpeed='max' departPos='base' departLane='best'/> 
<flow id='flow_6Si_1No_0' begin='0' end='1000' number='3' from='6Si' to='1No' departSpeed='max' departPos='base' departLane='best'/> 
<flow id='flow_6Si_2Eo_0' begin='0' end='1000' number='3' from='6Si' to='2Eo' departSpeed='max' departPos='base' departLane='best'/> 
<flow id='flow_6Si_2No_0' begin='0' end='1000' number='5' from='6Si' to='2No' departSpeed='max' departPos='base' departLane='best'/> 
<flow id='flow_6Si_3Wo_0' begin='0' end='1000' number='1' from='6Si' to='3Wo' departSpeed='max' departPos='base' departLane='best'/> 
<flow id='flow_6Si_5Eo_0' begin='0' end='1000' number='3' from='6Si' to='5Eo' departSpeed='max' departPos='base' departLane='best'/> 
<flow id='flow_6Si_6Wo_0' begin='0' end='1000' number='4' from='6Si' to='6Wo' departSpeed='max' departPos='base' departLane='best'/> 
<flow id='flow_6Si_7So_0' begin='0' end='1000' number='3' from='6Si' to='7So' departSpeed='max' departPos='base' departLane='best'/> 
<flow id='flow_6Si_8Eo_0' begin='0' end='1000' number='1' from='6Si' to='8Eo' departSpeed='max' departPos='base' departLane='best'/> 
<flow id='flow_6Si_8So_0' begin='0' end='1000' number='3' from='6Si' to='8So' departSpeed='max' departPos='base' departLane='best'/> 
<flow id='flow_6Wi_0No_0' begin='0' end='1000' number='2' from='6Wi' to='0No' departSpeed='max' departPos='base' departLane='best'/> 
<flow id='flow_6Wi_0Wo_0' begin='0' end='1000' number='3' from='6Wi' to='0Wo' departSpeed='max' departPos='base' departLane='best'/> 
<flow id='flow_6Wi_1No_0' begin='0' end='1000' number='3' from='6Wi' to='1No' departSpeed='max' departPos='base' departLane='best'/> 
<flow id='flow_6Wi_2Eo_0' begin='0' end='1000' number='5' from='6Wi' to='2Eo' departSpeed='max' departPos='base' departLane='best'/> 
<flow id='flow_6Wi_2No_0' begin='0' end='1000' number='1' from='6Wi' to='2No' departSpeed='max' departPos='base' departLane='best'/> 
<flow id='flow_6Wi_3Wo_0' begin='0' end='1000' number='2' from='6Wi' to='3Wo' departSpeed='max' departPos='base' departLane='best'/> 
<flow id='flow_6Wi_5Eo_0' begin='0' end='1000' number='3' from='6Wi' to='5Eo' departSpeed='max' departPos='base' departLane='best'/> 
<flow id='flow_6Wi_6So_0' begin='0' end='1000' number='3' from='6Wi' to='6So' departSpeed='max' departPos='base' departLane='best'/> 
<flow id='flow_6Wi_7So_0' begin='0' end='1000' number='3' from='6Wi' to='7So' departSpeed='max' departPos='base' departLane='best'/> 
<flow id='flow_6Wi_8Eo_0' begin='0' end='1000' number='1' from='6Wi' to='8Eo' departSpeed='max' departPos='base' departLane='best'/> 
<flow id='flow_6Wi_8So_0' begin='0' end='1000' number='3' from='6Wi' to='8So' departSpeed='max' departPos='base' departLane='best'/> 
<flow id='flow_7Si_0No_0' begin='0' end='1000' number='4' from='7Si' to='0No' departSpeed='max' departPos='base' departLane='best'/> 
<flow id='flow_7Si_0Wo_0' begin='0' end='1000' number='3' from='7Si' to='0Wo' departSpeed='max' departPos='base' departLane='best'/> 
<flow id='flow_7Si_1No_0' begin='0' end='1000' number='3' from='7Si' to='1No' departSpeed='max' departPos='base' departLane='best'/> 
<flow id='flow_7Si_2Eo_0' begin='0' end='1000' number='3' from='7Si' to='2Eo' departSpeed='max' departPos='base' departLane='best'/> 
<flow id='flow_7Si_2No_0' begin='0' end='1000' number='5' from='7Si' to='2No' departSpeed='max' departPos='base' departLane='best'/> 
<flow id='flow_7Si_3Wo_0' begin='0' end='1000' number='5' from='7Si' to='3Wo' departSpeed='max' departPos='base' departLane='best'/> 
<flow id='flow_7Si_5Eo_0' begin='0' end='1000' number='3' from='7Si' to='5Eo' departSpeed='max' departPos='base' departLane='best'/> 
<flow id='flow_7Si_6So_0' begin='0' end='1000' number='3' from='7Si' to='6So' departSpeed='max' departPos='base' departLane='best'/> 
<flow id='flow_7Si_6Wo_0' begin='0' end='1000' number='1' from='7Si' to='6Wo' departSpeed='max' departPos='base' departLane='best'/> 
<flow id='flow_7Si_8Eo_0' begin='0' end='1000' number='3' from='7Si' to='8Eo' departSpeed='max' departPos='base' departLane='best'/> 
<flow id='flow_7Si_8So_0' begin='0' end='1000' number='4' from='7Si' to='8So' departSpeed='max' departPos='base' departLane='best'/> 
<flow id='flow_8Ei_0No_0' begin='0' end='1000' number='5' from='8Ei' to='0No' departSpeed='max' departPos='base' departLane='best'/> 
<flow id='flow_8Ei_0Wo_0' begin='0' end='1000' number='3' from='8Ei' to='0Wo' departSpeed='max' departPos='base' departLane='best'/> 
<flow id='flow_8Ei_1No_0' begin='0' end='1000' number='2' from='8Ei' to='1No' departSpeed='max' departPos='base' departLane='best'/> 
<flow id='flow_8Ei_2Eo_0' begin='0' end='1000' number='2' from='8Ei' to='2Eo' departSpeed='max' departPos='base' departLane='best'/> 
<flow id='flow_8Ei_2No_0' begin='0' end='1000' number='3' from='8Ei' to='2No' departSpeed='max' departPos='base' departLane='best'/> 
<flow id='flow_8Ei_3Wo_0' begin='0' end='1000' number='3' from='8Ei' to='3Wo' departSpeed='max' departPos='base' departLane='best'/> 
<flow id='flow_8Ei_5Eo_0' begin='0' end='1000' number='5' from='8Ei' to='5Eo' departSpeed='max' departPos='base' departLane='best'/> 
<flow id='flow_8Ei_6So_0' begin='0' end='1000' number='3' from='8Ei' to='6So' departSpeed='max' departPos='base' departLane='best'/> 
<flow id='flow_8Ei_6Wo_0' begin='0' end='1000' number='3' from='8Ei' to='6Wo' departSpeed='max' departPos='base' departLane='best'/> 
<flow id='flow_8Ei_7So_0' begin='0' end='1000' number='3' from='8Ei' to='7So' departSpeed='max' departPos='base' departLane='best'/> 
<flow id='flow_8Ei_8So_0' begin='0' end='1000' number='3' from='8Ei' to='8So' departSpeed='max' departPos='base' departLane='best'/> 
<flow id='flow_8Si_0No_0' begin='0' end='1000' number='3' from='8Si' to='0No' departSpeed='max' departPos='base' departLane='best'/> 
<flow id='flow_8Si_0Wo_0' begin='0' end='1000' number='2' from='8Si' to='0Wo' departSpeed='max' departPos='base' departLane='best'/> 
<flow id='flow_8Si_1No_0' begin='0' end='1000' number='4' from='8Si' to='1No' departSpeed='max' departPos='base' departLane='best'/> 
<flow id='flow_8Si_2Eo_0' begin='0' end='1000' number='3' from='8Si' to='2Eo' departSpeed='max' departPos='base' departLane='best'/> 
<flow id='flow_8Si_2No_0' begin='0' end='1000' number='3' from='8Si' to='2No' departSpeed='max' departPos='base' departLane='best'/> 
<flow id='flow_8Si_3Wo_0' begin='0' end='1000' number='3' from='8Si' to='3Wo' departSpeed='max' departPos='base' departLane='best'/> 
<flow id='flow_8Si_5Eo_0' begin='0' end='1000' number='2' from='8Si' to='5Eo' departSpeed='max' departPos='base' departLane='best'/> 
<flow id='flow_8Si_6So_0' begin='0' end='1000' number='5' from='8Si' to='6So' departSpeed='max' departPos='base' departLane='best'/> 
<flow id='flow_8Si_6Wo_0' begin='0' end='1000' number='3' from='8Si' to='6Wo' departSpeed='max' departPos='base' departLane='best'/> 
<flow id='flow_8Si_7So_0' begin='0' end='1000' number='3' from='8Si' to='7So' departSpeed='max' departPos='base' departLane='best'/> 
<flow id='flow_8Si_8Eo_0' begin='0' end='1000' number='2' from='8Si' to='8Eo' departSpeed='max' departPos='base' departLane='best'/> 
<flow id='flow_0Ni_0Wo_1000' begin='1000' end='2000' number='3' from='0Ni' to='0Wo' departSpeed='max' departPos='base' departLane='best'/> 
<flow id='flow_0Ni_1No_1000' begin='1000' end='2000' number='1' from='0Ni' to='1No' departSpeed='max' departPos='base' departLane='best'/> 
<flow id='flow_0Ni_2Eo_1000' begin='1000' end='2000' number='3' from='0Ni' to='2Eo' departSpeed='max' departPos='base' departLane='best'/> 
<flow id='flow_0Ni_2No_1000' begin='1000' end='2000' number='2' from='0Ni' to='2No' departSpeed='max' departPos='base' departLane='best'/> 
<flow id='flow_0Ni_3Wo_1000' begin='1000' end='2000' number='3' from='0Ni' to='3Wo' departSpeed='max' departPos='base' departLane='best'/> 
<flow id='flow_0Ni_5Eo_1000' begin='1000' end='2000' number='3' from='0Ni' to='5Eo' departSpeed='max' departPos='base' departLane='best'/> 
<flow id='flow_0Ni_6So_1000' begin='1000' end='2000' number='3' from='0Ni' to='6So' departSpeed='max' departPos='base' departLane='best'/> 
<flow id='flow_0Ni_6Wo_1000' begin='1000' end='2000' number='3' from='0Ni' to='6Wo' departSpeed='max' departPos='base' departLane='best'/> 
<flow id='flow_0Ni_7So_1000' begin='1000' end='2000' number='4' from='0Ni' to='7So' departSpeed='max' departPos='base' departLane='best'/> 
<flow id='flow_0Ni_8Eo_1000' begin='1000' end='2000' number='3' from='0Ni' to='8Eo' departSpeed='max' departPos='base' departLane='best'/> 
<flow id='flow_0Ni_8So_1000' begin='1000' end='2000' number='3' from='0Ni' to='8So' departSpeed='max' departPos='base' departLane='best'/> 
<flow id='flow_0Wi_0No_1000' begin='1000' end='2000' number='3' from='0Wi' to='0No' departSpeed='max' departPos='base' departLane='best'/> 
<flow id='flow_0Wi_1No_1000' begin='1000' end='2000' number='5' from='0Wi' to='1No' departSpeed='max' departPos='base' departLane='best'/> 
<flow id='flow_0Wi_2Eo_1000' begin='1000' end='2000' number='3' from='0Wi' to='2Eo' departSpeed='max' departPos='base' departLane='best'/> 
<flow id='flow_0Wi_2No_1000' begin='1000' end='2000' number='1' from='0Wi' to='2No' departSpeed='max' departPos='base' departLane='best'/> 
<flow id='flow_0Wi_3Wo_1000' begin='1000' end='2000' number='3' from='0Wi' to='3Wo' departSpeed='max' departPos='base' departLane='best'/> 
<flow id='flow_0Wi_5Eo_1000' begin='1000' end='2000' number='3' from='0Wi' to='5Eo' departSpeed='max' departPos='base' departLane='best'/> 
<flow id='flow_0Wi_6So_1000' begin='1000' end='2000' number='3' from='0Wi' to='6So' departSpeed='max' departPos='base' departLane='best'/> 
<flow id='flow_0Wi_6Wo_1000' begin='1000' end='2000' number='3' from='0Wi' to='6Wo' departSpeed='max' departPos='base' departLane='best'/> 
<flow id='flow_0Wi_7So_1000' begin='1000' end='2000' number='4' from='0Wi' to='7So' departSpeed='max' departPos='base' departLane='best'/> 
<flow id='flow_0Wi_8Eo_1000' begin='1000' end='2000' number='2' from='0Wi' to='8Eo' departSpeed='max' departPos='base' departLane='best'/> 
<flow id='flow_0Wi_8So_1000' begin='1000' end='2000' number='1' from='0Wi' to='8So' departSpeed='max' departPos='base' departLane='best'/> 
<flow id='flow_1Ni_0No_1000' begin='1000' end='2000' number='5' from='1Ni' to='0No' departSpeed='max' departPos='base' departLane='best'/> 
<flow id='flow_1Ni_0Wo_1000' begin='1000' end='2000' number='4' from='1Ni' to='0Wo' departSpeed='max' departPos='base' departLane='best'/> 
<flow id='flow_1Ni_2Eo_1000' begin='1000' end='2000' number='3' from='1Ni' to='2Eo' departSpeed='max' departPos='base' departLane='best'/> 
<flow id='flow_1Ni_2No_1000' begin='1000' end='2000' number='3' from='1Ni' to='2No' departSpeed='max' departPos='base' departLane='best'/> 
<flow id='flow_1Ni_3Wo_1000' begin='1000' end='2000' number='5' from='1Ni' to='3Wo' departSpeed='max' departPos='base' departLane='best'/> 
<flow id='flow_1Ni_5Eo_1000' begin='1000' end='2000' number='5' from='1Ni' to='5Eo' departSpeed='max' departPos='base' departLane='best'/> 
<flow id='flow_1Ni_6So_1000' begin='1000' end='2000' number='3' from='1Ni' to='6So' departSpeed='max' departPos='base' departLane='best'/> 
<flow id='flow_1Ni_6Wo_1000' begin='1000' end='2000' number='3' from='1Ni' to='6Wo' departSpeed='max' departPos='base' departLane='best'/> 
<flow id='flow_1Ni_7So_1000' begin='1000' end='2000' number='3' from='1Ni' to='7So' departSpeed='max' departPos='base' departLane='best'/> 
<flow id='flow_1Ni_8Eo_1000' begin='1000' end='2000' number='3' from='1Ni' to='8Eo' departSpeed='max' departPos='base' departLane='best'/> 
<flow id='flow_1Ni_8So_1000' begin='1000' end='2000' number='5' from='1Ni' to='8So' departSpeed='max' departPos='base' departLane='best'/> 