<?xml version="1.0" encoding="UTF-8"?>

<!-- generated on Wed 09 Oct 2019 19:23:50 BST by Eclipse SUMO netedit Version v1_3_1+0126-1a50845ca7
<configuration xmlns:xsi="http://www.w3.org/2001/XMLSchema-instance" xsi:noNamespaceSchemaLocation="http://sumo.dlr.de/xsd/netconvertConfiguration.xsd">

    <input>
        <sumo-net-file value="scenarios/my8x8grid/8x8.net.xml"/>
    </input>

    <output>
        <output-file value="scenarios/my8x8grid/8x8.net.xml"/>
    </output>

    <processing>
        <geometry.max-grade.fix value="false"/>
        <offset.disable-normalization value="true"/>
        <lefthand value="false"/>
    </processing>

    <junctions>
        <no-turnarounds value="true"/>
        <junctions.corner-detail value="0"/>
        <junctions.limit-turn-speed value="-1"/>
        <rectangular-lane-cut value="false"/>
    </junctions>

    <pedestrian>
        <walkingareas value="false"/>
    </pedestrian>

</configuration>
-->

<net version="1.3" xmlns:xsi="http://www.w3.org/2001/XMLSchema-instance" xsi:noNamespaceSchemaLocation="http://sumo.dlr.de/xsd/net_file.xsd">

    <location netOffset="250.00,550.00" convBoundary="0.00,0.00,550.00,800.00" origBoundary="-250.00,-550.00,550.00,250.00" projParameter="!"/>

    <edge id=":0_0" function="internal">
        <lane id=":0_0_0" index="0" speed="13.89" length="9.03" shape="245.20,560.40 244.85,557.95 243.80,556.20 242.05,555.15 239.60,554.80"/>
    </edge>
    <edge id=":0_1" function="internal">
        <lane id=":0_1_0" index="0" speed="13.89" length="20.80" shape="245.20,560.40 245.20,539.60"/>
    </edge>
    <edge id=":0_2" function="internal">
        <lane id=":0_2_0" index="0" speed="13.89" length="19.35" shape="248.40,560.40 249.15,555.15 251.40,551.40 255.15,549.15 260.40,548.40"/>
    </edge>
    <edge id=":0_3" function="internal">
        <lane id=":0_3_0" index="0" speed="13.89" length="9.03" shape="260.40,554.80 257.95,555.15 256.20,556.20 255.15,557.95 254.80,560.40"/>
    </edge>
    <edge id=":0_4" function="internal">
        <lane id=":0_4_0" index="0" speed="13.89" length="20.80" shape="260.40,554.80 239.60,554.80"/>
    </edge>
    <edge id=":0_5" function="internal">
        <lane id=":0_5_0" index="0" speed="13.89" length="19.35" shape="260.40,551.60 255.15,550.85 251.40,548.60 249.15,544.85 248.40,539.60"/>
    </edge>
    <edge id=":0_6" function="internal">
        <lane id=":0_6_0" index="0" speed="13.89" length="9.03" shape="254.80,539.60 255.15,542.05 256.20,543.80 257.95,544.85 260.40,545.20"/>
    </edge>
    <edge id=":0_7" function="internal">
        <lane id=":0_7_0" index="0" speed="13.89" length="20.80" shape="254.80,539.60 254.80,560.40"/>
    </edge>
    <edge id=":0_8" function="internal">
        <lane id=":0_8_0" index="0" speed="13.89" length="19.35" shape="251.60,539.60 250.85,544.85 248.60,548.60 244.85,550.85 239.60,551.60"/>
    </edge>
    <edge id=":0_9" function="internal">
        <lane id=":0_9_0" index="0" speed="13.89" length="9.03" shape="239.60,545.20 242.05,544.85 243.80,543.80 244.85,542.05 245.20,539.60"/>
    </edge>
    <edge id=":0_10" function="internal">
        <lane id=":0_10_0" index="0" speed="13.89" length="20.80" shape="239.60,545.20 260.40,545.20"/>
    </edge>
    <edge id=":0_11" function="internal">
        <lane id=":0_11_0" index="0" speed="13.89" length="19.35" shape="239.60,548.40 244.85,549.15 248.60,551.40 250.85,555.15 251.60,560.40"/>
    </edge>
    <edge id=":1_0" function="internal">
        <lane id=":1_0_0" index="0" speed="13.89" length="9.03" shape="395.20,560.40 394.85,557.95 393.80,556.20 392.05,555.15 389.60,554.80"/>
    </edge>
    <edge id=":1_1" function="internal">
        <lane id=":1_1_0" index="0" speed="13.89" length="20.80" shape="395.20,560.40 395.20,539.60"/>
    </edge>
    <edge id=":1_2" function="internal">
        <lane id=":1_2_0" index="0" speed="13.89" length="19.35" shape="398.40,560.40 399.15,555.15 401.40,551.40 405.15,549.15 410.40,548.40"/>
    </edge>
    <edge id=":1_3" function="internal">
        <lane id=":1_3_0" index="0" speed="13.89" length="9.03" shape="410.40,554.80 407.95,555.15 406.20,556.20 405.15,557.95 404.80,560.40"/>
    </edge>
    <edge id=":1_4" function="internal">
        <lane id=":1_4_0" index="0" speed="13.89" length="20.80" shape="410.40,554.80 389.60,554.80"/>
    </edge>
    <edge id=":1_5" function="internal">
        <lane id=":1_5_0" index="0" speed="13.89" length="19.35" shape="410.40,551.60 405.15,550.85 401.40,548.60 399.15,544.85 398.40,539.60"/>
    </edge>
    <edge id=":1_6" function="internal">
        <lane id=":1_6_0" index="0" speed="13.89" length="9.03" shape="404.80,539.60 405.15,542.05 406.20,543.80 407.95,544.85 410.40,545.20"/>
    </edge>
    <edge id=":1_7" function="internal">
        <lane id=":1_7_0" index="0" speed="13.89" length="20.80" shape="404.80,539.60 404.80,560.40"/>
    </edge>
    <edge id=":1_8" function="internal">
        <lane id=":1_8_0" index="0" speed="13.89" length="19.35" shape="401.60,539.60 400.85,544.85 398.60,548.60 394.85,550.85 389.60,551.60"/>
    </edge>
    <edge id=":1_9" function="internal">
        <lane id=":1_9_0" index="0" speed="13.89" length="9.03" shape="389.60,545.20 392.05,544.85 393.80,543.80 394.85,542.05 395.20,539.60"/>
    </edge>
    <edge id=":1_10" function="internal">
        <lane id=":1_10_0" index="0" speed="13.89" length="20.80" shape="389.60,545.20 410.40,545.20"/>
    </edge>
    <edge id=":1_11" function="internal">
        <lane id=":1_11_0" index="0" speed="13.89" length="19.35" shape="389.60,548.40 394.85,549.15 398.60,551.40 400.85,555.15 401.60,560.40"/>
    </edge>
    <edge id=":2_0" function="internal">
        <lane id=":2_0_0" index="0" speed="13.89" length="9.03" shape="545.20,560.40 544.85,557.95 543.80,556.20 542.05,555.15 539.60,554.80"/>
    </edge>
    <edge id=":2_1" function="internal">
        <lane id=":2_1_0" index="0" speed="13.89" length="20.80" shape="545.20,560.40 545.20,539.60"/>
    </edge>
    <edge id=":2_2" function="internal">
        <lane id=":2_2_0" index="0" speed="13.89" length="20.80" shape="554.80,539.60 554.80,560.40"/>
    </edge>
    <edge id=":2_3" function="internal">
        <lane id=":2_3_0" index="0" speed="13.89" length="19.35" shape="551.60,539.60 550.85,544.85 548.60,548.60 544.85,550.85 539.60,551.60"/>
    </edge>
    <edge id=":2_4" function="internal">
        <lane id=":2_4_0" index="0" speed="13.89" length="9.03" shape="539.60,545.20 542.05,544.85 543.80,543.80 544.85,542.05 545.20,539.60"/>
    </edge>
    <edge id=":2_5" function="internal">
        <lane id=":2_5_0" index="0" speed="13.89" length="19.35" shape="539.60,548.40 544.85,549.15 548.60,551.40 550.85,555.15 551.60,560.40"/>
    </edge>
    <edge id=":3_0" function="internal">
        <lane id=":3_0_0" index="0" speed="13.89" length="9.03" shape="245.20,410.40 244.85,407.95 243.80,406.20 242.05,405.15 239.60,404.80"/>
    </edge>
    <edge id=":3_1" function="internal">
        <lane id=":3_1_0" index="0" speed="13.89" length="20.80" shape="245.20,410.40 245.20,389.60"/>
    </edge>
    <edge id=":3_2" function="internal">
        <lane id=":3_2_0" index="0" speed="13.89" length="19.35" shape="248.40,410.40 249.15,405.15 251.40,401.40 255.15,399.15 260.40,398.40"/>
    </edge>
    <edge id=":3_3" function="internal">
        <lane id=":3_3_0" index="0" speed="13.89" length="9.03" shape="260.40,404.80 257.95,405.15 256.20,406.20 255.15,407.95 254.80,410.40"/>
    </edge>
    <edge id=":3_4" function="internal">
        <lane id=":3_4_0" index="0" speed="13.89" length="20.80" shape="260.40,404.80 239.60,404.80"/>
    </edge>
    <edge id=":3_5" function="internal">
        <lane id=":3_5_0" index="0" speed="13.89" length="19.35" shape="260.40,401.60 255.15,400.85 251.40,398.60 249.15,394.85 248.40,389.60"/>
    </edge>
    <edge id=":3_6" function="internal">
        <lane id=":3_6_0" index="0" speed="13.89" length="9.03" shape="254.80,389.60 255.15,392.05 256.20,393.80 257.95,394.85 260.40,395.20"/>
    </edge>
    <edge id=":3_7" function="internal">
        <lane id=":3_7_0" index="0" speed="13.89" length="20.80" shape="254.80,389.60 254.80,410.40"/>
    </edge>
    <edge id=":3_8" function="internal">
        <lane id=":3_8_0" index="0" speed="13.89" length="19.35" shape="251.60,389.60 250.85,394.85 248.60,398.60 244.85,400.85 239.60,401.60"/>
    </edge>
    <edge id=":3_9" function="internal">
        <lane id=":3_9_0" index="0" speed="13.89" length="9.03" shape="239.60,395.20 242.05,394.85 243.80,393.80 244.85,392.05 245.20,389.60"/>
    </edge>
    <edge id=":3_10" function="internal">
        <lane id=":3_10_0" index="0" speed="13.89" length="20.80" shape="239.60,395.20 260.40,395.20"/>
    </edge>
    <edge id=":3_11" function="internal">
        <lane id=":3_11_0" index="0" speed="13.89" length="4.04" shape="239.60,398.40 243.60,398.97"/>
    </edge>
    <edge id=":3_12" function="internal">
        <lane id=":3_12_0" index="0" speed="13.89" length="15.31" shape="243.60,398.97 244.85,399.15 248.60,401.40 250.85,405.15 251.60,410.40"/>
    </edge>
    <edge id=":4_0" function="internal">
        <lane id=":4_0_0" index="0" speed="13.89" length="9.03" shape="395.20,410.40 394.85,407.95 393.80,406.20 392.05,405.15 389.60,404.80"/>
    </edge>
    <edge id=":4_1" function="internal">
        <lane id=":4_1_0" index="0" speed="13.89" length="20.80" shape="395.20,410.40 395.20,389.60"/>
    </edge>
    <edge id=":4_2" function="internal">
        <lane id=":4_2_0" index="0" speed="13.89" length="19.35" shape="398.40,410.40 399.15,405.15 401.40,401.40 405.15,399.15 410.40,398.40"/>
    </edge>
    <edge id=":4_3" function="internal">
        <lane id=":4_3_0" index="0" speed="13.89" length="9.03" shape="410.40,404.80 407.95,405.15 406.20,406.20 405.15,407.95 404.80,410.40"/>
    </edge>
    <edge id=":4_4" function="internal">
        <lane id=":4_4_0" index="0" speed="13.89" length="20.80" shape="410.40,404.80 389.60,404.80"/>
    </edge>
    <edge id=":4_5" function="internal">
        <lane id=":4_5_0" index="0" speed="13.89" length="19.35" shape="410.40,401.60 405.15,400.85 401.40,398.60 399.15,394.85 398.40,389.60"/>
    </edge>
    <edge id=":4_6" function="internal">
        <lane id=":4_6_0" index="0" speed="13.89" length="9.03" shape="404.80,389.60 405.15,392.05 406.20,393.80 407.95,394.85 410.40,395.20"/>
    </edge>
    <edge id=":4_7" function="internal">
        <lane id=":4_7_0" index="0" speed="13.89" length="20.80" shape="404.80,389.60 404.80,410.40"/>
    </edge>
    <edge id=":4_8" function="internal">
        <lane id=":4_8_0" index="0" speed="13.89" length="19.35" shape="401.60,389.60 400.85,394.85 398.60,398.60 394.85,400.85 389.60,401.60"/>
    </edge>
    <edge id=":4_9" function="internal">
        <lane id=":4_9_0" index="0" speed="13.89" length="9.03" shape="389.60,395.20 392.05,394.85 393.80,393.80 394.85,392.05 395.20,389.60"/>
    </edge>
    <edge id=":4_10" function="internal">
        <lane id=":4_10_0" index="0" speed="13.89" length="20.80" shape="389.60,395.20 410.40,395.20"/>
    </edge>
    <edge id=":4_11" function="internal">
        <lane id=":4_11_0" index="0" speed="13.89" length="19.35" shape="389.60,398.40 394.85,399.15 398.60,401.40 400.85,405.15 401.60,410.40"/>
    </edge>
    <edge id=":5_0" function="internal">
        <lane id=":5_0_0" index="0" speed="13.89" length="9.03" shape="545.20,410.40 544.85,407.95 543.80,406.20 542.05,405.15 539.60,404.80"/>
    </edge>
    <edge id=":5_1" function="internal">
        <lane id=":5_1_0" index="0" speed="13.89" length="20.80" shape="545.20,410.40 545.20,389.60"/>
        <lane id=":5_1_1" index="1" speed="13.89" length="20.80" shape="548.40,410.40 548.40,389.60"/>
    </edge>
    <edge id=":5_3" function="internal">
        <lane id=":5_3_0" index="0" speed="13.89" length="20.80" shape="554.80,389.60 554.80,410.40"/>
        <lane id=":5_3_1" index="1" speed="13.89" length="20.80" shape="551.60,389.60 551.60,410.40"/>
    </edge>
    <edge id=":5_5" function="internal">
        <lane id=":5_5_0" index="0" speed="13.89" length="6.96" shape="551.60,389.60 550.85,394.85 550.00,396.27"/>
    </edge>
    <edge id=":5_9" function="internal">
        <lane id=":5_9_0" index="0" speed="13.89" length="12.40" shape="550.00,396.27 548.60,398.60 544.85,400.85 539.60,401.60"/>
    </edge>
    <edge id=":5_6" function="internal">
        <lane id=":5_6_0" index="0" speed="13.89" length="9.03" shape="539.60,395.20 542.05,394.85 543.80,393.80 544.85,392.05 545.20,389.60"/>
    </edge>
    <edge id=":5_7" function="internal">
        <lane id=":5_7_0" index="0" speed="13.89" length="14.19" shape="539.60,398.40 543.45,397.85 546.20,396.20 547.85,393.45 548.40,389.60"/>
    </edge>
    <edge id=":5_8" function="internal">
        <lane id=":5_8_0" index="0" speed="13.89" length="19.35" shape="539.60,398.40 544.85,399.15 548.60,401.40 550.85,405.15 551.60,410.40"/>
    </edge>
    <edge id=":6_0" function="internal">
        <lane id=":6_0_0" index="0" speed="13.89" length="9.03" shape="245.20,260.40 244.85,257.95 243.80,256.20 242.05,255.15 239.60,254.80"/>
    </edge>
    <edge id=":6_1" function="internal">
        <lane id=":6_1_0" index="0" speed="13.89" length="20.80" shape="245.20,260.40 245.20,239.60"/>
    </edge>
    <edge id=":6_2" function="internal">
        <lane id=":6_2_0" index="0" speed="13.89" length="19.35" shape="248.40,260.40 249.15,255.15 251.40,251.40 255.15,249.15 260.40,248.40"/>
    </edge>
    <edge id=":6_3" function="internal">
        <lane id=":6_3_0" index="0" speed="13.89" length="9.03" shape="260.40,254.80 257.95,255.15 256.20,256.20 255.15,257.95 254.80,260.40"/>
    </edge>
    <edge id=":6_4" function="internal">
        <lane id=":6_4_0" index="0" speed="13.89" length="20.80" shape="260.40,254.80 239.60,254.80"/>
    </edge>
    <edge id=":6_5" function="internal">
        <lane id=":6_5_0" index="0" speed="13.89" length="19.35" shape="260.40,251.60 255.15,250.85 251.40,248.60 249.15,244.85 248.40,239.60"/>
    </edge>
    <edge id=":6_6" function="internal">
        <lane id=":6_6_0" index="0" speed="13.89" length="9.03" shape="254.80,239.60 255.15,242.05 256.20,243.80 257.95,244.85 260.40,245.20"/>
    </edge>
    <edge id=":6_7" function="internal">
        <lane id=":6_7_0" index="0" speed="13.89" length="20.80" shape="254.80,239.60 254.80,260.40"/>
    </edge>
    <edge id=":6_8" function="internal">
        <lane id=":6_8_0" index="0" speed="13.89" length="19.35" shape="251.60,239.60 250.85,244.85 248.60,248.60 244.85,250.85 239.60,251.60"/>
    </edge>
    <edge id=":6_9" function="internal">
        <lane id=":6_9_0" index="0" speed="13.89" length="9.03" shape="239.60,245.20 242.05,244.85 243.80,243.80 244.85,242.05 245.20,239.60"/>
    </edge>
    <edge id=":6_10" function="internal">
        <lane id=":6_10_0" index="0" speed="13.89" length="20.80" shape="239.60,245.20 260.40,245.20"/>
    </edge>
    <edge id=":6_11" function="internal">
        <lane id=":6_11_0" index="0" speed="13.89" length="19.35" shape="239.60,248.40 244.85,249.15 248.60,251.40 250.85,255.15 251.60,260.40"/>
    </edge>
    <edge id=":7_0" function="internal">
        <lane id=":7_0_0" index="0" speed="13.89" length="9.03" shape="395.20,260.40 394.85,257.95 393.80,256.20 392.05,255.15 389.60,254.80"/>
    </edge>
    <edge id=":7_1" function="internal">
        <lane id=":7_1_0" index="0" speed="13.89" length="20.80" shape="395.20,260.40 395.20,239.60"/>
    </edge>
    <edge id=":7_2" function="internal">
        <lane id=":7_2_0" index="0" speed="13.89" length="19.35" shape="398.40,260.40 399.15,255.15 401.40,251.40 405.15,249.15 410.40,248.40"/>
    </edge>
    <edge id=":7_3" function="internal">
        <lane id=":7_3_0" index="0" speed="13.89" length="9.03" shape="410.40,254.80 407.95,255.15 406.20,256.20 405.15,257.95 404.80,260.40"/>
    </edge>
    <edge id=":7_4" function="internal">
        <lane id=":7_4_0" index="0" speed="13.89" length="20.80" shape="410.40,254.80 389.60,254.80"/>
    </edge>
    <edge id=":7_5" function="internal">
        <lane id=":7_5_0" index="0" speed="13.89" length="19.35" shape="410.40,251.60 405.15,250.85 401.40,248.60 399.15,244.85 398.40,239.60"/>
    </edge>
    <edge id=":7_6" function="internal">
        <lane id=":7_6_0" index="0" speed="13.89" length="9.03" shape="404.80,239.60 405.15,242.05 406.20,243.80 407.95,244.85 410.40,245.20"/>
    </edge>
    <edge id=":7_7" function="internal">
        <lane id=":7_7_0" index="0" speed="13.89" length="20.80" shape="404.80,239.60 404.80,260.40"/>
    </edge>
    <edge id=":7_8" function="internal">
        <lane id=":7_8_0" index="0" speed="13.89" length="19.35" shape="401.60,239.60 400.85,244.85 398.60,248.60 394.85,250.85 389.60,251.60"/>
    </edge>
    <edge id=":7_9" function="internal">
        <lane id=":7_9_0" index="0" speed="13.89" length="9.03" shape="389.60,245.20 392.05,244.85 393.80,243.80 394.85,242.05 395.20,239.60"/>
    </edge>
    <edge id=":7_10" function="internal">
        <lane id=":7_10_0" index="0" speed="13.89" length="20.80" shape="389.60,245.20 410.40,245.20"/>
    </edge>
    <edge id=":7_11" function="internal">
        <lane id=":7_11_0" index="0" speed="13.89" length="19.35" shape="389.60,248.40 394.85,249.15 398.60,251.40 400.85,255.15 401.60,260.40"/>
    </edge>
    <edge id=":8_0" function="internal">
        <lane id=":8_0_0" index="0" speed="13.89" length="9.03" shape="545.20,260.40 544.85,257.95 543.80,256.20 542.05,255.15 539.60,254.80"/>
    </edge>
    <edge id=":8_1" function="internal">
        <lane id=":8_1_0" index="0" speed="13.89" length="20.80" shape="545.20,260.40 545.20,239.60"/>
    </edge>
    <edge id=":8_2" function="internal">
        <lane id=":8_2_0" index="0" speed="13.89" length="20.80" shape="554.80,239.60 554.80,260.40"/>
    </edge>
    <edge id=":8_3" function="internal">
        <lane id=":8_3_0" index="0" speed="13.89" length="19.35" shape="551.60,239.60 550.85,244.85 548.60,248.60 544.85,250.85 539.60,251.60"/>
    </edge>
    <edge id=":8_4" function="internal">
        <lane id=":8_4_0" index="0" speed="13.89" length="9.03" shape="539.60,245.20 542.05,244.85 543.80,243.80 544.85,242.05 545.20,239.60"/>
    </edge>
    <edge id=":8_5" function="internal">
        <lane id=":8_5_0" index="0" speed="13.89" length="19.35" shape="539.60,248.40 544.85,249.15 548.60,251.40 550.85,255.15 551.60,260.40"/>
    </edge>

    <edge id="0Ei" from="1" to="0" priority="3">
        <lane id="0Ei_0" index="0" speed="13.89" length="129.20" shape="389.60,554.80 260.40,554.80"/>
        <lane id="0Ei_1" index="1" speed="13.89" length="129.20" shape="389.60,551.60 260.40,551.60"/>
    </edge>
    <edge id="0Ni" from="15" to="0" priority="3">
        <lane id="0Ni_0" index="0" speed="13.89" length="239.60" shape="245.20,800.00 245.20,560.40"/>
        <lane id="0Ni_1" index="1" speed="13.89" length="239.60" shape="248.40,800.00 248.40,560.40"/>
    </edge>
    <edge id="0No" from="0" to="15" priority="3">
        <lane id="0No_0" index="0" speed="13.89" length="239.60" shape="254.80,560.40 254.80,800.00"/>
        <lane id="0No_1" index="1" speed="13.89" length="239.60" shape="251.60,560.40 251.60,800.00"/>
    </edge>
    <edge id="0Si" from="3" to="0" priority="3">
        <lane id="0Si_0" index="0" speed="13.89" length="129.20" shape="254.80,410.40 254.80,539.60"/>
        <lane id="0Si_1" index="1" speed="13.89" length="129.20" shape="251.60,410.40 251.60,539.60"/>
    </edge>
    <edge id="0Wi" from="14" to="0" priority="3">
        <lane id="0Wi_0" index="0" speed="13.89" length="239.60" shape="0.00,545.20 239.60,545.20"/>
        <lane id="0Wi_1" index="1" speed="13.89" length="239.60" shape="0.00,548.40 239.60,548.40"/>
    </edge>
    <edge id="0Wo" from="0" to="14" priority="3">
        <lane id="0Wo_0" index="0" speed="13.89" length="239.60" shape="239.60,554.80 0.00,554.80"/>
        <lane id="0Wo_1" index="1" speed="13.89" length="239.60" shape="239.60,551.60 0.00,551.60"/>
    </edge>
    <edge id="1Ei" from="2" to="1" priority="3">
        <lane id="1Ei_0" index="0" speed="13.89" length="129.20" shape="539.60,554.80 410.40,554.80"/>
        <lane id="1Ei_1" index="1" speed="13.89" length="129.20" shape="539.60,551.60 410.40,551.60"/>
    </edge>
    <edge id="1Ni" from="16" to="1" priority="3">
        <lane id="1Ni_0" index="0" speed="13.89" length="239.60" shape="395.20,800.00 395.20,560.40"/>
        <lane id="1Ni_1" index="1" speed="13.89" length="239.60" shape="398.40,800.00 398.40,560.40"/>
    </edge>
    <edge id="1No" from="1" to="16" priority="3">
        <lane id="1No_0" index="0" speed="13.89" length="239.60" shape="404.80,560.40 404.80,800.00"/>
        <lane id="1No_1" index="1" speed="13.89" length="239.60" shape="401.60,560.40 401.60,800.00"/>
    </edge>
    <edge id="1Si" from="4" to="1" priority="3">
        <lane id="1Si_0" index="0" speed="13.89" length="129.20" shape="404.80,410.40 404.80,539.60"/>
        <lane id="1Si_1" index="1" speed="13.89" length="129.20" shape="401.60,410.40 401.60,539.60"/>
    </edge>
    <edge id="1Wi" from="0" to="1" priority="3">
        <lane id="1Wi_0" index="0" speed="13.89" length="129.20" shape="260.40,545.20 389.60,545.20"/>
        <lane id="1Wi_1" index="1" speed="13.89" length="129.20" shape="260.40,548.40 389.60,548.40"/>
    </edge>
    <edge id="2Ni" from="17" to="2" priority="3">
        <lane id="2Ni_0" index="0" speed="13.89" length="239.60" shape="545.20,800.00 545.20,560.40"/>
        <lane id="2Ni_1" index="1" speed="13.89" length="239.60" shape="548.40,800.00 548.40,560.40"/>
    </edge>
    <edge id="2No" from="2" to="17" priority="3">
        <lane id="2No_0" index="0" speed="13.89" length="239.60" shape="554.80,560.40 554.80,800.00"/>
        <lane id="2No_1" index="1" speed="13.89" length="239.60" shape="551.60,560.40 551.60,800.00"/>
    </edge>
    <edge id="2Si" from="5" to="2" priority="3">
        <lane id="2Si_0" index="0" speed="13.89" length="129.20" shape="554.80,410.40 554.80,539.60"/>
        <lane id="2Si_1" index="1" speed="13.89" length="129.20" shape="551.60,410.40 551.60,539.60"/>
    </edge>
    <edge id="2Wi" from="1" to="2" priority="3">
        <lane id="2Wi_0" index="0" speed="13.89" length="129.20" shape="410.40,545.20 539.60,545.20"/>
        <lane id="2Wi_1" index="1" speed="13.89" length="129.20" shape="410.40,548.40 539.60,548.40"/>
    </edge>
    <edge id="3Ei" from="4" to="3" priority="3">
        <lane id="3Ei_0" index="0" speed="13.89" length="129.20" shape="389.60,404.80 260.40,404.80"/>
        <lane id="3Ei_1" index="1" speed="13.89" length="129.20" shape="389.60,401.60 260.40,401.60"/>
    </edge>
    <edge id="3Ni" from="0" to="3" priority="3">
        <lane id="3Ni_0" index="0" speed="13.89" length="129.20" shape="245.20,539.60 245.20,410.40"/>
        <lane id="3Ni_1" index="1" speed="13.89" length="129.20" shape="248.40,539.60 248.40,410.40"/>
    </edge>
    <edge id="3Si" from="6" to="3" priority="3">
        <lane id="3Si_0" index="0" speed="13.89" length="129.20" shape="254.80,260.40 254.80,389.60"/>
        <lane id="3Si_1" index="1" speed="13.89" length="129.20" shape="251.60,260.40 251.60,389.60"/>
    </edge>
    <edge id="3Wi" from="13" to="3" priority="3">
        <lane id="3Wi_0" index="0" speed="13.89" length="239.60" shape="0.00,395.20 239.60,395.20"/>
        <lane id="3Wi_1" index="1" speed="13.89" length="239.60" shape="0.00,398.40 239.60,398.40"/>
    </edge>
    <edge id="3Wo" from="3" to="13" priority="3">
        <lane id="3Wo_0" index="0" speed="13.89" length="239.60" shape="239.60,404.80 0.00,404.80"/>
        <lane id="3Wo_1" index="1" speed="13.89" length="239.60" shape="239.60,401.60 0.00,401.60"/>
    </edge>
    <edge id="4Ei" from="5" to="4" priority="3">
        <lane id="4Ei_0" index="0" speed="13.89" length="129.20" shape="539.60,404.80 410.40,404.80"/>
        <lane id="4Ei_1" index="1" speed="13.89" length="129.20" shape="539.60,401.60 410.40,401.60"/>
    </edge>
    <edge id="4Ni" from="1" to="4" priority="3">
        <lane id="4Ni_0" index="0" speed="13.89" length="129.20" shape="395.20,539.60 395.20,410.40"/>
        <lane id="4Ni_1" index="1" speed="13.89" length="129.20" shape="398.40,539.60 398.40,410.40"/>
    </edge>
    <edge id="4Si" from="7" to="4" priority="3">
        <lane id="4Si_0" index="0" speed="13.89" length="129.20" shape="404.80,260.40 404.80,389.60"/>
        <lane id="4Si_1" index="1" speed="13.89" length="129.20" shape="401.60,260.40 401.60,389.60"/>
    </edge>
    <edge id="4Wi" from="3" to="4" priority="3">
        <lane id="4Wi_0" index="0" speed="13.89" length="129.20" shape="260.40,395.20 389.60,395.20"/>
        <lane id="4Wi_1" index="1" speed="13.89" length="129.20" shape="260.40,398.40 389.60,398.40"/>
    </edge>
    <edge id="5Ni" from="2" to="5" priority="3">
        <lane id="5Ni_0" index="0" speed="13.89" length="129.20" shape="545.20,539.60 545.20,410.40"/>
        <lane id="5Ni_1" index="1" speed="13.89" length="129.20" shape="548.40,539.60 548.40,410.40"/>
    </edge>
    <edge id="5Si" from="8" to="5" priority="3">
        <lane id="5Si_0" index="0" speed="13.89" length="129.20" shape="554.80,260.40 554.80,389.60"/>
        <lane id="5Si_1" index="1" speed="13.89" length="129.20" shape="551.60,260.40 551.60,389.60"/>
    </edge>
    <edge id="5Wi" from="4" to="5" priority="3">
        <lane id="5Wi_0" index="0" speed="13.89" length="129.20" shape="410.40,395.20 539.60,395.20"/>
        <lane id="5Wi_1" index="1" speed="13.89" length="129.20" shape="410.40,398.40 539.60,398.40"/>
    </edge>
    <edge id="6Ei" from="7" to="6" priority="3">
        <lane id="6Ei_0" index="0" speed="13.89" length="129.20" shape="389.60,254.80 260.40,254.80"/>
        <lane id="6Ei_1" index="1" speed="13.89" length="129.20" shape="389.60,251.60 260.40,251.60"/>
    </edge>
    <edge id="6Ni" from="3" to="6" priority="3">
        <lane id="6Ni_0" index="0" speed="13.89" length="129.20" shape="245.20,389.60 245.20,260.40"/>
        <lane id="6Ni_1" index="1" speed="13.89" length="129.20" shape="248.40,389.60 248.40,260.40"/>
    </edge>
    <edge id="6Si" from="11" to="6" priority="3">
        <lane id="6Si_0" index="0" speed="13.89" length="239.60" shape="254.80,0.00 254.80,239.60"/>
        <lane id="6Si_1" index="1" speed="13.89" length="239.60" shape="251.60,0.00 251.60,239.60"/>
    </edge>
    <edge id="6So" from="6" to="11" priority="3">
        <lane id="6So_0" index="0" speed="13.89" length="239.60" shape="245.20,239.60 245.20,0.00"/>
        <lane id="6So_1" index="1" speed="13.89" length="239.60" shape="248.40,239.60 248.40,0.00"/>
    </edge>
    <edge id="6Wi" from="12" to="6" priority="3">
        <lane id="6Wi_0" index="0" speed="13.89" length="239.60" shape="0.00,245.20 239.60,245.20"/>
        <lane id="6Wi_1" index="1" speed="13.89" length="239.60" shape="0.00,248.40 239.60,248.40"/>
    </edge>
    <edge id="6Wo" from="6" to="12" priority="3">
        <lane id="6Wo_0" index="0" speed="13.89" length="239.60" shape="239.60,254.80 0.00,254.80"/>
        <lane id="6Wo_1" index="1" speed="13.89" length="239.60" shape="239.60,251.60 0.00,251.60"/>
    </edge>
    <edge id="7Ei" from="8" to="7" priority="3">
        <lane id="7Ei_0" index="0" speed="13.89" length="129.20" shape="539.60,254.80 410.40,254.80"/>
        <lane id="7Ei_1" index="1" speed="13.89" length="129.20" shape="539.60,251.60 410.40,251.60"/>
    </edge>
    <edge id="7Ni" from="4" to="7" priority="3">
        <lane id="7Ni_0" index="0" speed="13.89" length="129.20" shape="395.20,389.60 395.20,260.40"/>
        <lane id="7Ni_1" index="1" speed="13.89" length="129.20" shape="398.40,389.60 398.40,260.40"/>
    </edge>
    <edge id="7Si" from="10" to="7" priority="3">
        <lane id="7Si_0" index="0" speed="13.89" length="239.60" shape="404.80,0.00 404.80,239.60"/>
        <lane id="7Si_1" index="1" speed="13.89" length="239.60" shape="401.60,0.00 401.60,239.60"/>
    </edge>
    <edge id="7So" from="7" to="10" priority="3">
        <lane id="7So_0" index="0" speed="13.89" length="239.60" shape="395.20,239.60 395.20,0.00"/>
        <lane id="7So_1" index="1" speed="13.89" length="239.60" shape="398.40,239.60 398.40,0.00"/>
    </edge>
    <edge id="7Wi" from="6" to="7" priority="3">
        <lane id="7Wi_0" index="0" speed="13.89" length="129.20" shape="260.40,245.20 389.60,245.20"/>
        <lane id="7Wi_1" index="1" speed="13.89" length="129.20" shape="260.40,248.40 389.60,248.40"/>
    </edge>
    <edge id="8Ni" from="5" to="8" priority="3">
        <lane id="8Ni_0" index="0" speed="13.89" length="129.20" shape="545.20,389.60 545.20,260.40"/>
        <lane id="8Ni_1" index="1" speed="13.89" length="129.20" shape="548.40,389.60 548.40,260.40"/>
    </edge>
    <edge id="8Si" from="9" to="8" priority="3">
        <lane id="8Si_0" index="0" speed="13.89" length="239.60" shape="554.80,0.00 554.80,239.60"/>
        <lane id="8Si_1" index="1" speed="13.89" length="239.60" shape="551.60,0.00 551.60,239.60"/>
    </edge>
    <edge id="8So" from="8" to="9" priority="3">
        <lane id="8So_0" index="0" speed="13.89" length="239.60" shape="545.20,239.60 545.20,0.00"/>
        <lane id="8So_1" index="1" speed="13.89" length="239.60" shape="548.40,239.60 548.40,0.00"/>
    </edge>
    <edge id="8Wi" from="7" to="8" priority="3">
        <lane id="8Wi_0" index="0" speed="13.89" length="129.20" shape="410.40,245.20 539.60,245.20"/>
        <lane id="8Wi_1" index="1" speed="13.89" length="129.20" shape="410.40,248.40 539.60,248.40"/>
    </edge>

    <tlLogic id="0" type="static" programID="0" offset="0">
        <phase duration="32" state="GGrrrrGGrrrr"/>
        <phase duration="3"  state="yyrrrryyrrrr"/>
        <phase duration="32" state="rrGrrrrrGrrr"/>
        <phase duration="3"  state="rryrrrrryrrr"/>